data_nwchem_pspw

_audit_creation_date   Mon Nov 13 18:51:40 2023
_audit_creation_method    generated by PSPW module of NWChem


_cell_length_a            10.0667
_cell_length_b             9.1552
_cell_length_c             9.2041
_cell_angle_alpha         90.0000
_cell_angle_beta          90.0000
_cell_angle_gamma         90.0000

_symmetry_space_group_name_H-M     P1  

loop_
_atom_site_type_symbol
_atom_site_fract_x
_atom_site_fract_y
_atom_site_fract_z
H             0.146735     -0.250000      0.224756
Fe            0.353175     -0.083327     -0.025375
Fe           -0.146825     -0.083327     -0.224625
Fe           -0.353265     -0.250000      0.025244
H            -0.085221     -0.250000      0.049134
H            -0.414737     -0.083030     -0.201101
H             0.085263     -0.083030     -0.048899
H             0.414779     -0.250000      0.200866
O            -0.196748     -0.250000     -0.095276
O            -0.303195     -0.083277      0.154599
O             0.196805     -0.083277      0.095401
O             0.303252     -0.250000     -0.154724
O            -0.053396     -0.250000      0.148894
O            -0.446594     -0.082953     -0.101355
O             0.053406     -0.082954     -0.148645
O             0.446604     -0.250000      0.101106
Fe            0.146825      0.083327      0.224625
Fe            0.353265      0.250000     -0.025244
Fe           -0.146735      0.250000     -0.224756
Fe           -0.353175      0.083327      0.025375
H            -0.085263      0.083030      0.048899
H            -0.414779      0.250000     -0.200866
H             0.085221      0.250000     -0.049134
H             0.414737      0.083030      0.201101
O            -0.196805      0.083277     -0.095401
O            -0.303252      0.250000      0.154724
O             0.196748      0.250000      0.095276
O             0.303195      0.083277     -0.154599
O            -0.053406      0.082954      0.148645
O            -0.446604      0.250000     -0.101106
O             0.053396      0.250000     -0.148894
O             0.446594      0.082953      0.101355
Fe            0.146825      0.416673      0.224625
Fe            0.353175     -0.416673     -0.025375
Fe           -0.146825     -0.416673     -0.224625
Fe           -0.353175      0.416673      0.025375
H            -0.085263      0.416970      0.048899
H            -0.414737     -0.416970     -0.201101
H             0.085263     -0.416970     -0.048899
H             0.414737      0.416970      0.201101
O            -0.196805      0.416723     -0.095401
O            -0.303195     -0.416723      0.154599
O             0.196805     -0.416723      0.095401
O             0.303195      0.416723     -0.154599
O            -0.053406      0.417047      0.148645
O            -0.446594     -0.417047     -0.101355
O             0.053406     -0.417047     -0.148645
O             0.446594      0.417046      0.101355
Fe            0.146735     -0.250000     -0.275244
Fe            0.353175     -0.083327      0.474625
Fe           -0.146825     -0.083327      0.275375
Fe           -0.353265     -0.250000     -0.474756
H            -0.085221     -0.250000     -0.450866
H            -0.414737     -0.083030      0.298899
H             0.085263     -0.083030      0.451101
H             0.414779     -0.250000     -0.299134
O            -0.196748     -0.250000      0.404724
O            -0.303195     -0.083277     -0.345401
O             0.196805     -0.083277     -0.404599
O             0.303252     -0.250000      0.345276
O            -0.053396     -0.250000     -0.351106
O            -0.446594     -0.082953      0.398645
O             0.053406     -0.082954      0.351355
O             0.446604     -0.250000     -0.398894
Fe            0.146825      0.083327     -0.275375
Fe            0.353265      0.250000      0.474756
Fe           -0.146735      0.250000      0.275244
Fe           -0.353175      0.083327     -0.474625
H            -0.085263      0.083030     -0.451101
H            -0.414779      0.250000      0.299134
H             0.085221      0.250000      0.450866
H             0.414737      0.083030     -0.298899
O            -0.196805      0.083277      0.404599
O            -0.303252      0.250000     -0.345276
O             0.196748      0.250000     -0.404724
O             0.303195      0.083277      0.345401
O            -0.053406      0.082954     -0.351355
O            -0.446604      0.250000      0.398894
O             0.053396      0.250000      0.351106
O             0.446594      0.082953     -0.398645
Fe            0.146825      0.416673     -0.275375
Cu            0.353175     -0.416673      0.474625
Fe           -0.146825     -0.416673      0.275375
Fe           -0.353175      0.416673     -0.474625
H            -0.085263      0.416970     -0.451101
H            -0.414737     -0.416970      0.298899
H             0.085263     -0.416970      0.451101
H             0.414737      0.416970     -0.298899
O            -0.196805      0.416723      0.404599
O            -0.303195     -0.416723     -0.345401
O             0.196805     -0.416723     -0.404599
O             0.303195      0.416723      0.345401
O            -0.053406      0.417047     -0.351355
O            -0.446594     -0.417047      0.398645
O             0.053406     -0.417047      0.351355
O             0.446594      0.417046     -0.398645
H             0.451134     -0.207847      0.346694
H             0.046735     -0.250000      0.214756
H             0.146735     -0.150000      0.234756
data_nwchem_pspw

_audit_creation_date   Mon Nov 13 18:54:41 2023
_audit_creation_method    generated by PSPW module of NWChem


_cell_length_a            10.0667
_cell_length_b             9.1552
_cell_length_c             9.2041
_cell_angle_alpha         90.0000
_cell_angle_beta          90.0000
_cell_angle_gamma         90.0000

_symmetry_space_group_name_H-M     P1  

loop_
_atom_site_type_symbol
_atom_site_fract_x
_atom_site_fract_y
_atom_site_fract_z
H             0.146735     -0.250000      0.224756
Fe            0.353175     -0.083327     -0.025375
Fe           -0.146825     -0.083327     -0.224625
Fe           -0.353265     -0.250000      0.025244
H            -0.085221     -0.250000      0.049134
H            -0.414737     -0.083030     -0.201101
H             0.085263     -0.083030     -0.048899
H             0.414779     -0.250000      0.200866
O            -0.196748     -0.250000     -0.095276
O            -0.303195     -0.083277      0.154599
O             0.196805     -0.083277      0.095401
O             0.303252     -0.250000     -0.154724
O            -0.053396     -0.250000      0.148894
O            -0.446594     -0.082953     -0.101355
O             0.053406     -0.082954     -0.148645
O             0.446604     -0.250000      0.101106
Fe            0.146825      0.083327      0.224625
Fe            0.353265      0.250000     -0.025244
Fe           -0.146735      0.250000     -0.224756
Fe           -0.353175      0.083327      0.025375
H            -0.085263      0.083030      0.048899
H            -0.414779      0.250000     -0.200866
H             0.085221      0.250000     -0.049134
H             0.414737      0.083030      0.201101
O            -0.196805      0.083277     -0.095401
O            -0.303252      0.250000      0.154724
O             0.196748      0.250000      0.095276
O             0.303195      0.083277     -0.154599
O            -0.053406      0.082954      0.148645
O            -0.446604      0.250000     -0.101106
O             0.053396      0.250000     -0.148894
O             0.446594      0.082953      0.101355
Fe            0.146825      0.416673      0.224625
Fe            0.353175     -0.416673     -0.025375
Fe           -0.146825     -0.416673     -0.224625
Fe           -0.353175      0.416673      0.025375
H            -0.085263      0.416970      0.048899
H            -0.414737     -0.416970     -0.201101
H             0.085263     -0.416970     -0.048899
H             0.414737      0.416970      0.201101
O            -0.196805      0.416723     -0.095401
O            -0.303195     -0.416723      0.154599
O             0.196805     -0.416723      0.095401
O             0.303195      0.416723     -0.154599
O            -0.053406      0.417047      0.148645
O            -0.446594     -0.417047     -0.101355
O             0.053406     -0.417047     -0.148645
O             0.446594      0.417046      0.101355
Fe            0.146735     -0.250000     -0.275244
Fe            0.353175     -0.083327      0.474625
Fe           -0.146825     -0.083327      0.275375
Fe           -0.353265     -0.250000     -0.474756
H            -0.085221     -0.250000     -0.450866
H            -0.414737     -0.083030      0.298899
H             0.085263     -0.083030      0.451101
H             0.414779     -0.250000     -0.299134
O            -0.196748     -0.250000      0.404724
O            -0.303195     -0.083277     -0.345401
O             0.196805     -0.083277     -0.404599
O             0.303252     -0.250000      0.345276
O            -0.053396     -0.250000     -0.351106
O            -0.446594     -0.082953      0.398645
O             0.053406     -0.082954      0.351355
O             0.446604     -0.250000     -0.398894
Fe            0.146825      0.083327     -0.275375
Fe            0.353265      0.250000      0.474756
Fe           -0.146735      0.250000      0.275244
Fe           -0.353175      0.083327     -0.474625
H            -0.085263      0.083030     -0.451101
H            -0.414779      0.250000      0.299134
H             0.085221      0.250000      0.450866
H             0.414737      0.083030     -0.298899
O            -0.196805      0.083277      0.404599
O            -0.303252      0.250000     -0.345276
O             0.196748      0.250000     -0.404724
O             0.303195      0.083277      0.345401
O            -0.053406      0.082954     -0.351355
O            -0.446604      0.250000      0.398894
O             0.053396      0.250000      0.351106
O             0.446594      0.082953     -0.398645
Fe            0.146825      0.416673     -0.275375
Cu            0.353175     -0.416673      0.474625
Fe           -0.146825     -0.416673      0.275375
Fe           -0.353175      0.416673     -0.474625
H            -0.085263      0.416970     -0.451101
H            -0.414737     -0.416970      0.298899
H             0.085263     -0.416970      0.451101
H             0.414737      0.416970     -0.298899
O            -0.196805      0.416723      0.404599
O            -0.303195     -0.416723     -0.345401
O             0.196805     -0.416723     -0.404599
O             0.303195      0.416723      0.345401
O            -0.053406      0.417047     -0.351355
O            -0.446594     -0.417047      0.398645
O             0.053406     -0.417047      0.351355
O             0.446594      0.417046     -0.398645
H             0.451134     -0.207847      0.346694
H             0.046735     -0.250000      0.214756
H             0.146735     -0.150000      0.234756
data_nwchem_pspw

_audit_creation_date   Mon Nov 13 18:56:02 2023
_audit_creation_method    generated by PSPW module of NWChem


_cell_length_a            10.0667
_cell_length_b             9.1552
_cell_length_c             9.2041
_cell_angle_alpha         90.0000
_cell_angle_beta          90.0000
_cell_angle_gamma         90.0000

_symmetry_space_group_name_H-M     P1  

loop_
_atom_site_type_symbol
_atom_site_fract_x
_atom_site_fract_y
_atom_site_fract_z
H             0.146735     -0.250000      0.224756
Fe            0.353175     -0.083327     -0.025375
Fe           -0.146825     -0.083327     -0.224625
Fe           -0.353265     -0.250000      0.025244
H            -0.085221     -0.250000      0.049134
H            -0.414737     -0.083030     -0.201101
H             0.085263     -0.083030     -0.048899
H             0.414779     -0.250000      0.200866
O            -0.196748     -0.250000     -0.095276
O            -0.303195     -0.083277      0.154599
O             0.196805     -0.083277      0.095401
O             0.303252     -0.250000     -0.154724
O            -0.053396     -0.250000      0.148894
O            -0.446594     -0.082953     -0.101355
O             0.053406     -0.082954     -0.148645
O             0.446604     -0.250000      0.101106
Fe            0.146825      0.083327      0.224625
Fe            0.353265      0.250000     -0.025244
Fe           -0.146735      0.250000     -0.224756
Fe           -0.353175      0.083327      0.025375
H            -0.085263      0.083030      0.048899
H            -0.414779      0.250000     -0.200866
H             0.085221      0.250000     -0.049134
H             0.414737      0.083030      0.201101
O            -0.196805      0.083277     -0.095401
O            -0.303252      0.250000      0.154724
O             0.196748      0.250000      0.095276
O             0.303195      0.083277     -0.154599
O            -0.053406      0.082954      0.148645
O            -0.446604      0.250000     -0.101106
O             0.053396      0.250000     -0.148894
O             0.446594      0.082953      0.101355
Fe            0.146825      0.416673      0.224625
Fe            0.353175     -0.416673     -0.025375
Fe           -0.146825     -0.416673     -0.224625
Fe           -0.353175      0.416673      0.025375
H            -0.085263      0.416970      0.048899
H            -0.414737     -0.416970     -0.201101
H             0.085263     -0.416970     -0.048899
H             0.414737      0.416970      0.201101
O            -0.196805      0.416723     -0.095401
O            -0.303195     -0.416723      0.154599
O             0.196805     -0.416723      0.095401
O             0.303195      0.416723     -0.154599
O            -0.053406      0.417047      0.148645
O            -0.446594     -0.417047     -0.101355
O             0.053406     -0.417047     -0.148645
O             0.446594      0.417046      0.101355
Fe            0.146735     -0.250000     -0.275244
Fe            0.353175     -0.083327      0.474625
Fe           -0.146825     -0.083327      0.275375
Fe           -0.353265     -0.250000     -0.474756
H            -0.085221     -0.250000     -0.450866
H            -0.414737     -0.083030      0.298899
H             0.085263     -0.083030      0.451101
H             0.414779     -0.250000     -0.299134
O            -0.196748     -0.250000      0.404724
O            -0.303195     -0.083277     -0.345401
O             0.196805     -0.083277     -0.404599
O             0.303252     -0.250000      0.345276
O            -0.053396     -0.250000     -0.351106
O            -0.446594     -0.082953      0.398645
O             0.053406     -0.082954      0.351355
O             0.446604     -0.250000     -0.398894
Fe            0.146825      0.083327     -0.275375
Fe            0.353265      0.250000      0.474756
Fe           -0.146735      0.250000      0.275244
Fe           -0.353175      0.083327     -0.474625
H            -0.085263      0.083030     -0.451101
H            -0.414779      0.250000      0.299134
H             0.085221      0.250000      0.450866
H             0.414737      0.083030     -0.298899
O            -0.196805      0.083277      0.404599
O            -0.303252      0.250000     -0.345276
O             0.196748      0.250000     -0.404724
O             0.303195      0.083277      0.345401
O            -0.053406      0.082954     -0.351355
O            -0.446604      0.250000      0.398894
O             0.053396      0.250000      0.351106
O             0.446594      0.082953     -0.398645
Fe            0.146825      0.416673     -0.275375
Cu            0.353175     -0.416673      0.474625
Fe           -0.146825     -0.416673      0.275375
Fe           -0.353175      0.416673     -0.474625
H            -0.085263      0.416970     -0.451101
H            -0.414737     -0.416970      0.298899
H             0.085263     -0.416970      0.451101
H             0.414737      0.416970     -0.298899
O            -0.196805      0.416723      0.404599
O            -0.303195     -0.416723     -0.345401
O             0.196805     -0.416723     -0.404599
O             0.303195      0.416723      0.345401
O            -0.053406      0.417047     -0.351355
O            -0.446594     -0.417047      0.398645
O             0.053406     -0.417047      0.351355
O             0.446594      0.417046     -0.398645
H             0.451134     -0.207847      0.346694
H             0.046735     -0.250000      0.214756
H             0.146735     -0.150000      0.234756
data_nwchem_pspw

_audit_creation_date   Mon Nov 13 18:57:04 2023
_audit_creation_method    generated by PSPW module of NWChem


_cell_length_a            10.0667
_cell_length_b             9.1552
_cell_length_c             9.2041
_cell_angle_alpha         90.0000
_cell_angle_beta          90.0000
_cell_angle_gamma         90.0000

_symmetry_space_group_name_H-M     P1  

loop_
_atom_site_type_symbol
_atom_site_fract_x
_atom_site_fract_y
_atom_site_fract_z
H             0.146735     -0.250000      0.224756
Fe            0.353175     -0.083327     -0.025375
Fe           -0.146825     -0.083327     -0.224625
Fe           -0.353265     -0.250000      0.025244
H            -0.085221     -0.250000      0.049134
H            -0.414737     -0.083030     -0.201101
H             0.085263     -0.083030     -0.048899
H             0.414779     -0.250000      0.200866
O            -0.196748     -0.250000     -0.095276
O            -0.303195     -0.083277      0.154599
O             0.196805     -0.083277      0.095401
O             0.303252     -0.250000     -0.154724
O            -0.053396     -0.250000      0.148894
O            -0.446594     -0.082953     -0.101355
O             0.053406     -0.082954     -0.148645
O             0.446604     -0.250000      0.101106
Fe            0.146825      0.083327      0.224625
Fe            0.353265      0.250000     -0.025244
Fe           -0.146735      0.250000     -0.224756
Fe           -0.353175      0.083327      0.025375
H            -0.085263      0.083030      0.048899
H            -0.414779      0.250000     -0.200866
H             0.085221      0.250000     -0.049134
H             0.414737      0.083030      0.201101
O            -0.196805      0.083277     -0.095401
O            -0.303252      0.250000      0.154724
O             0.196748      0.250000      0.095276
O             0.303195      0.083277     -0.154599
O            -0.053406      0.082954      0.148645
O            -0.446604      0.250000     -0.101106
O             0.053396      0.250000     -0.148894
O             0.446594      0.082953      0.101355
Fe            0.146825      0.416673      0.224625
Fe            0.353175     -0.416673     -0.025375
Fe           -0.146825     -0.416673     -0.224625
Fe           -0.353175      0.416673      0.025375
H            -0.085263      0.416970      0.048899
H            -0.414737     -0.416970     -0.201101
H             0.085263     -0.416970     -0.048899
H             0.414737      0.416970      0.201101
O            -0.196805      0.416723     -0.095401
O            -0.303195     -0.416723      0.154599
O             0.196805     -0.416723      0.095401
O             0.303195      0.416723     -0.154599
O            -0.053406      0.417047      0.148645
O            -0.446594     -0.417047     -0.101355
O             0.053406     -0.417047     -0.148645
O             0.446594      0.417046      0.101355
Fe            0.146735     -0.250000     -0.275244
Fe            0.353175     -0.083327      0.474625
Fe           -0.146825     -0.083327      0.275375
Fe           -0.353265     -0.250000     -0.474756
H            -0.085221     -0.250000     -0.450866
H            -0.414737     -0.083030      0.298899
H             0.085263     -0.083030      0.451101
H             0.414779     -0.250000     -0.299134
O            -0.196748     -0.250000      0.404724
O            -0.303195     -0.083277     -0.345401
O             0.196805     -0.083277     -0.404599
O             0.303252     -0.250000      0.345276
O            -0.053396     -0.250000     -0.351106
O            -0.446594     -0.082953      0.398645
O             0.053406     -0.082954      0.351355
O             0.446604     -0.250000     -0.398894
Fe            0.146825      0.083327     -0.275375
Fe            0.353265      0.250000      0.474756
Fe           -0.146735      0.250000      0.275244
Fe           -0.353175      0.083327     -0.474625
H            -0.085263      0.083030     -0.451101
H            -0.414779      0.250000      0.299134
H             0.085221      0.250000      0.450866
H             0.414737      0.083030     -0.298899
O            -0.196805      0.083277      0.404599
O            -0.303252      0.250000     -0.345276
O             0.196748      0.250000     -0.404724
O             0.303195      0.083277      0.345401
O            -0.053406      0.082954     -0.351355
O            -0.446604      0.250000      0.398894
O             0.053396      0.250000      0.351106
O             0.446594      0.082953     -0.398645
Fe            0.146825      0.416673     -0.275375
Cu            0.353175     -0.416673      0.474625
Fe           -0.146825     -0.416673      0.275375
Fe           -0.353175      0.416673     -0.474625
H            -0.085263      0.416970     -0.451101
H            -0.414737     -0.416970      0.298899
H             0.085263     -0.416970      0.451101
H             0.414737      0.416970     -0.298899
O            -0.196805      0.416723      0.404599
O            -0.303195     -0.416723     -0.345401
O             0.196805     -0.416723     -0.404599
O             0.303195      0.416723      0.345401
O            -0.053406      0.417047     -0.351355
O            -0.446594     -0.417047      0.398645
O             0.053406     -0.417047      0.351355
O             0.446594      0.417046     -0.398645
H             0.451134     -0.207847      0.346694
H             0.046735     -0.250000      0.214756
H             0.146735     -0.150000      0.234756
data_nwchem_pspw

_audit_creation_date   Mon Nov 13 19:12:08 2023
_audit_creation_method    generated by PSPW module of NWChem


_cell_length_a            10.0667
_cell_length_b             9.1552
_cell_length_c             9.2041
_cell_angle_alpha         90.0000
_cell_angle_beta          90.0000
_cell_angle_gamma         90.0000

_symmetry_space_group_name_H-M     P1  

loop_
_atom_site_type_symbol
_atom_site_fract_x
_atom_site_fract_y
_atom_site_fract_z
H             0.146735     -0.250000      0.224756
Fe            0.353175     -0.083327     -0.025375
Fe           -0.146825     -0.083327     -0.224625
Fe           -0.353265     -0.250000      0.025244
H            -0.085221     -0.250000      0.049134
H            -0.414737     -0.083030     -0.201101
H             0.085263     -0.083030     -0.048899
H             0.414779     -0.250000      0.200866
O            -0.196748     -0.250000     -0.095276
O            -0.303195     -0.083277      0.154599
O             0.196805     -0.083277      0.095401
O             0.303252     -0.250000     -0.154724
O            -0.053396     -0.250000      0.148894
O            -0.446594     -0.082953     -0.101355
O             0.053406     -0.082954     -0.148645
O             0.446604     -0.250000      0.101106
Fe            0.146825      0.083327      0.224625
Fe            0.353265      0.250000     -0.025244
Fe           -0.146735      0.250000     -0.224756
Fe           -0.353175      0.083327      0.025375
H            -0.085263      0.083030      0.048899
H            -0.414779      0.250000     -0.200866
H             0.085221      0.250000     -0.049134
H             0.414737      0.083030      0.201101
O            -0.196805      0.083277     -0.095401
O            -0.303252      0.250000      0.154724
O             0.196748      0.250000      0.095276
O             0.303195      0.083277     -0.154599
O            -0.053406      0.082954      0.148645
O            -0.446604      0.250000     -0.101106
O             0.053396      0.250000     -0.148894
O             0.446594      0.082953      0.101355
Fe            0.146825      0.416673      0.224625
Fe            0.353175     -0.416673     -0.025375
Fe           -0.146825     -0.416673     -0.224625
Fe           -0.353175      0.416673      0.025375
H            -0.085263      0.416970      0.048899
H            -0.414737     -0.416970     -0.201101
H             0.085263     -0.416970     -0.048899
H             0.414737      0.416970      0.201101
O            -0.196805      0.416723     -0.095401
O            -0.303195     -0.416723      0.154599
O             0.196805     -0.416723      0.095401
O             0.303195      0.416723     -0.154599
O            -0.053406      0.417047      0.148645
O            -0.446594     -0.417047     -0.101355
O             0.053406     -0.417047     -0.148645
O             0.446594      0.417046      0.101355
Fe            0.146735     -0.250000     -0.275244
Fe            0.353175     -0.083327      0.474625
Fe           -0.146825     -0.083327      0.275375
Fe           -0.353265     -0.250000     -0.474756
H            -0.085221     -0.250000     -0.450866
H            -0.414737     -0.083030      0.298899
H             0.085263     -0.083030      0.451101
H             0.414779     -0.250000     -0.299134
O            -0.196748     -0.250000      0.404724
O            -0.303195     -0.083277     -0.345401
O             0.196805     -0.083277     -0.404599
O             0.303252     -0.250000      0.345276
O            -0.053396     -0.250000     -0.351106
O            -0.446594     -0.082953      0.398645
O             0.053406     -0.082954      0.351355
O             0.446604     -0.250000     -0.398894
Fe            0.146825      0.083327     -0.275375
Fe            0.353265      0.250000      0.474756
Fe           -0.146735      0.250000      0.275244
Fe           -0.353175      0.083327     -0.474625
H            -0.085263      0.083030     -0.451101
H            -0.414779      0.250000      0.299134
H             0.085221      0.250000      0.450866
H             0.414737      0.083030     -0.298899
O            -0.196805      0.083277      0.404599
O            -0.303252      0.250000     -0.345276
O             0.196748      0.250000     -0.404724
O             0.303195      0.083277      0.345401
O            -0.053406      0.082954     -0.351355
O            -0.446604      0.250000      0.398894
O             0.053396      0.250000      0.351106
O             0.446594      0.082953     -0.398645
Fe            0.146825      0.416673     -0.275375
Cu            0.353175     -0.416673      0.474625
Fe           -0.146825     -0.416673      0.275375
Fe           -0.353175      0.416673     -0.474625
H            -0.085263      0.416970     -0.451101
H            -0.414737     -0.416970      0.298899
H             0.085263     -0.416970      0.451101
H             0.414737      0.416970     -0.298899
O            -0.196805      0.416723      0.404599
O            -0.303195     -0.416723     -0.345401
O             0.196805     -0.416723     -0.404599
O             0.303195      0.416723      0.345401
O            -0.053406      0.417047     -0.351355
O            -0.446594     -0.417047      0.398645
O             0.053406     -0.417047      0.351355
O             0.446594      0.417046     -0.398645
H             0.451134     -0.207847      0.346694
H             0.046735     -0.250000      0.214756
H             0.146735     -0.150000      0.234756
data_nwchem_pspw

_audit_creation_date   Mon Nov 13 20:08:09 2023
_audit_creation_method    generated by PSPW module of NWChem


_cell_length_a            10.0667
_cell_length_b             9.1552
_cell_length_c             9.2041
_cell_angle_alpha         90.0000
_cell_angle_beta          90.0000
_cell_angle_gamma         90.0000

_symmetry_space_group_name_H-M     P1  

loop_
_atom_site_type_symbol
_atom_site_fract_x
_atom_site_fract_y
_atom_site_fract_z
H             0.146735     -0.250000      0.224756
Fe            0.353175     -0.083327     -0.025375
Fe           -0.146825     -0.083327     -0.224625
Fe           -0.353265     -0.250000      0.025244
H            -0.085221     -0.250000      0.049134
H            -0.414737     -0.083030     -0.201101
H             0.085263     -0.083030     -0.048899
H             0.414779     -0.250000      0.200866
O            -0.196748     -0.250000     -0.095276
O            -0.303195     -0.083277      0.154599
O             0.196805     -0.083277      0.095401
O             0.303252     -0.250000     -0.154724
O            -0.053396     -0.250000      0.148894
O            -0.446594     -0.082953     -0.101355
O             0.053406     -0.082954     -0.148645
O             0.446604     -0.250000      0.101106
Fe            0.146825      0.083327      0.224625
Fe            0.353265      0.250000     -0.025244
Fe           -0.146735      0.250000     -0.224756
Fe           -0.353175      0.083327      0.025375
H            -0.085263      0.083030      0.048899
H            -0.414779      0.250000     -0.200866
H             0.085221      0.250000     -0.049134
H             0.414737      0.083030      0.201101
O            -0.196805      0.083277     -0.095401
O            -0.303252      0.250000      0.154724
O             0.196748      0.250000      0.095276
O             0.303195      0.083277     -0.154599
O            -0.053406      0.082954      0.148645
O            -0.446604      0.250000     -0.101106
O             0.053396      0.250000     -0.148894
O             0.446594      0.082953      0.101355
Fe            0.146825      0.416673      0.224625
Fe            0.353175     -0.416673     -0.025375
Fe           -0.146825     -0.416673     -0.224625
Fe           -0.353175      0.416673      0.025375
H            -0.085263      0.416970      0.048899
H            -0.414737     -0.416970     -0.201101
H             0.085263     -0.416970     -0.048899
H             0.414737      0.416970      0.201101
O            -0.196805      0.416723     -0.095401
O            -0.303195     -0.416723      0.154599
O             0.196805     -0.416723      0.095401
O             0.303195      0.416723     -0.154599
O            -0.053406      0.417047      0.148645
O            -0.446594     -0.417047     -0.101355
O             0.053406     -0.417047     -0.148645
O             0.446594      0.417046      0.101355
Fe            0.146735     -0.250000     -0.275244
Fe            0.353175     -0.083327      0.474625
Fe           -0.146825     -0.083327      0.275375
Fe           -0.353265     -0.250000     -0.474756
H            -0.085221     -0.250000     -0.450866
H            -0.414737     -0.083030      0.298899
H             0.085263     -0.083030      0.451101
H             0.414779     -0.250000     -0.299134
O            -0.196748     -0.250000      0.404724
O            -0.303195     -0.083277     -0.345401
O             0.196805     -0.083277     -0.404599
O             0.303252     -0.250000      0.345276
O            -0.053396     -0.250000     -0.351106
O            -0.446594     -0.082953      0.398645
O             0.053406     -0.082954      0.351355
O             0.446604     -0.250000     -0.398894
Fe            0.146825      0.083327     -0.275375
Fe            0.353265      0.250000      0.474756
Fe           -0.146735      0.250000      0.275244
Fe           -0.353175      0.083327     -0.474625
H            -0.085263      0.083030     -0.451101
H            -0.414779      0.250000      0.299134
H             0.085221      0.250000      0.450866
H             0.414737      0.083030     -0.298899
O            -0.196805      0.083277      0.404599
O            -0.303252      0.250000     -0.345276
O             0.196748      0.250000     -0.404724
O             0.303195      0.083277      0.345401
O            -0.053406      0.082954     -0.351355
O            -0.446604      0.250000      0.398894
O             0.053396      0.250000      0.351106
O             0.446594      0.082953     -0.398645
Fe            0.146825      0.416673     -0.275375
Cu            0.353175     -0.416673      0.474625
Fe           -0.146825     -0.416673      0.275375
Fe           -0.353175      0.416673     -0.474625
H            -0.085263      0.416970     -0.451101
H            -0.414737     -0.416970      0.298899
H             0.085263     -0.416970      0.451101
H             0.414737      0.416970     -0.298899
O            -0.196805      0.416723      0.404599
O            -0.303195     -0.416723     -0.345401
O             0.196805     -0.416723     -0.404599
O             0.303195      0.416723      0.345401
O            -0.053406      0.417047     -0.351355
O            -0.446594     -0.417047      0.398645
O             0.053406     -0.417047      0.351355
O             0.446594      0.417046     -0.398645
H             0.451134     -0.207847      0.346694
H             0.046735     -0.250000      0.214756
H             0.146735     -0.150000      0.234756
data_nwchem_pspw

_audit_creation_date   Mon Nov 13 22:04:13 2023
_audit_creation_method    generated by PSPW module of NWChem


_cell_length_a            10.0667
_cell_length_b             9.1552
_cell_length_c             9.2041
_cell_angle_alpha         90.0000
_cell_angle_beta          90.0000
_cell_angle_gamma         90.0000

_symmetry_space_group_name_H-M     P1  

loop_
_atom_site_type_symbol
_atom_site_fract_x
_atom_site_fract_y
_atom_site_fract_z
H             0.198155     -0.237528      0.364411
Fe            0.342082     -0.083552     -0.008405
Fe           -0.150994     -0.081347     -0.232004
Fe           -0.363954     -0.254778      0.026122
H            -0.097837     -0.234205      0.041061
H            -0.415959     -0.093941     -0.199154
H             0.086833     -0.085018     -0.058387
H             0.365777     -0.249945      0.198979
O            -0.213774     -0.255212     -0.102127
O            -0.292347     -0.087981      0.158561
O             0.174469     -0.087447      0.089875
O             0.301993     -0.252365     -0.152861
O            -0.048733     -0.244461      0.130982
O            -0.450788     -0.077375     -0.102506
O             0.047640     -0.090443     -0.158445
O             0.432915     -0.247354      0.119619
Fe            0.147801      0.075630      0.225840
Fe            0.353808      0.254781     -0.027727
Fe           -0.142258      0.267277     -0.216173
Fe           -0.351302      0.091358      0.023268
H            -0.077000      0.101725      0.044476
H            -0.392930      0.275458     -0.193404
H             0.086612      0.278671     -0.036967
H             0.424226      0.056666      0.212779
O            -0.185210      0.088587     -0.095128
O            -0.292035      0.248849      0.150734
O             0.208212      0.253278      0.093918
O             0.305756      0.085116     -0.142615
O            -0.057731      0.089747      0.147760
O            -0.442983      0.252648     -0.107281
O             0.054948      0.263099     -0.137114
O             0.455365      0.065691      0.112153
Fe            0.137624      0.411630      0.239492
Fe            0.347728     -0.421328     -0.041103
Fe           -0.154852     -0.403332     -0.231334
Fe           -0.359949      0.416735      0.020221
H            -0.096018      0.396086      0.047687
H            -0.403755     -0.416848     -0.201954
H             0.052513     -0.428676     -0.042352
H             0.414167      0.429040      0.194022
O            -0.202070      0.437377     -0.089042
O            -0.298552     -0.407911      0.152149
O             0.200234     -0.434005      0.097374
O             0.305572      0.400146     -0.161404
O            -0.055540      0.404922      0.143903
O            -0.445081     -0.410864     -0.109511
O             0.041608     -0.432337     -0.145453
O             0.443641      0.424772      0.093229
Fe            0.151117     -0.251934     -0.285701
Fe            0.355886     -0.078908      0.477463
Fe           -0.123104     -0.079257      0.286764
Fe           -0.361004     -0.253097     -0.489374
H            -0.084945     -0.237338     -0.455612
H            -0.346205     -0.054695      0.240603
H             0.071911     -0.082066      0.464977
H             0.410662     -0.244938     -0.302477
O            -0.207788     -0.254543      0.384404
O            -0.308694     -0.078668     -0.355788
O             0.211781     -0.076976     -0.388722
O             0.292012     -0.256967      0.347460
O            -0.059732     -0.255078     -0.354685
O            -0.455858     -0.107159      0.371861
O             0.065830     -0.094518      0.360599
O             0.442864     -0.245344     -0.402515
Fe            0.140396      0.082017     -0.264939
Fe            0.353345      0.265596      0.470347
Fe           -0.140229      0.249894      0.278439
Fe           -0.347775      0.096155     -0.461959
H            -0.062147      0.092212     -0.456253
H            -0.395592      0.247633      0.305235
H             0.088653      0.232056      0.455041
H             0.426163      0.097282     -0.311701
O            -0.196555      0.075091      0.405987
O            -0.295624      0.252880     -0.340908
O             0.199657      0.246275     -0.400938
O             0.310060      0.063116      0.339901
O            -0.049686      0.096298     -0.352193
O            -0.440670      0.250253      0.399273
O             0.051856      0.234261      0.356988
O             0.456618      0.101357     -0.411702
Fe            0.147690      0.415509     -0.280993
Cu            0.364871     -0.413393      0.476386
Fe           -0.145253     -0.430883      0.282921
Fe           -0.353008      0.414331     -0.468244
H            -0.091798      0.395682     -0.444179
H            -0.434274     -0.407687      0.277974
H             0.090475     -0.438339      0.460094
H             0.417026      0.375036     -0.297400
O            -0.192142      0.406786      0.414983
O            -0.306006     -0.416432     -0.364787
O             0.189948     -0.417850     -0.413954
O             0.300227      0.408469      0.345676
O            -0.060604      0.409309     -0.344433
O            -0.445030     -0.420994      0.380855
O             0.048238     -0.442043      0.361825
O             0.448679      0.412406     -0.390652
H            -0.489628     -0.169081      0.298964
H             0.044354     -0.239282      0.135107
H             0.194494     -0.332516      0.117757
data_nwchem_pspw

_audit_creation_date   Tue Nov 14 00:05:44 2023
_audit_creation_method    generated by PSPW module of NWChem


_cell_length_a            10.0667
_cell_length_b             9.1552
_cell_length_c             9.2041
_cell_angle_alpha         90.0000
_cell_angle_beta          90.0000
_cell_angle_gamma         90.0000

_symmetry_space_group_name_H-M     P1  

loop_
_atom_site_type_symbol
_atom_site_fract_x
_atom_site_fract_y
_atom_site_fract_z
H             0.206627     -0.244406      0.323772
Fe            0.356049     -0.082105     -0.004279
Fe           -0.153428     -0.074884     -0.232328
Fe           -0.346753     -0.239013      0.012585
H            -0.107990     -0.219977      0.058866
H            -0.452976     -0.080337     -0.212615
H             0.079445     -0.069710     -0.040689
H             0.424899     -0.249811      0.196923
O            -0.201913     -0.245781     -0.103201
O            -0.312679     -0.070043      0.165030
O             0.192039     -0.078077      0.090759
O             0.303018     -0.247749     -0.154047
O            -0.054048     -0.223768      0.146129
O            -0.451386     -0.068002     -0.108220
O             0.053065     -0.087037     -0.143657
O             0.467755     -0.237621      0.104092
Fe            0.130831      0.071247      0.223710
Fe            0.343405      0.257571     -0.009926
Fe           -0.140854      0.245559     -0.222234
Fe           -0.360375      0.095393      0.017945
H            -0.096243      0.077558      0.049192
H            -0.443841      0.253988     -0.210618
H             0.067707      0.260162     -0.037185
H             0.402312      0.099104      0.206538
O            -0.191047      0.082224     -0.093218
O            -0.305638      0.257351      0.148125
O             0.191223      0.256655      0.104024
O             0.314262      0.086765     -0.143059
O            -0.064436      0.076396      0.151179
O            -0.448140      0.257688     -0.106712
O             0.058648      0.233674     -0.137876
O             0.436638      0.097811      0.108751
Fe            0.147943      0.418848      0.226740
Fe            0.362303     -0.420196     -0.043542
Fe           -0.142776     -0.422993     -0.237709
Fe           -0.348539      0.431435      0.017408
H            -0.063122      0.477364      0.039738
H            -0.410905     -0.410853     -0.216645
H             0.095597     -0.418724     -0.067338
H             0.424307      0.419752      0.191541
O            -0.194709      0.424753     -0.109762
O            -0.302178     -0.404347      0.150548
O             0.210184     -0.416004      0.101569
O             0.290274      0.418851     -0.158508
O            -0.061637      0.441700      0.136902
O            -0.446592     -0.423604     -0.117316
O             0.044850     -0.422786     -0.156164
O             0.461203      0.418811      0.093861
Fe            0.142572     -0.249590     -0.272919
Fe            0.351486     -0.086662      0.491207
Fe           -0.146344     -0.076483      0.303507
Fe           -0.354243     -0.256274     -0.456049
H            -0.098365     -0.267307     -0.459673
H            -0.374211     -0.093884      0.242692
H             0.074559     -0.078663      0.460174
H             0.409240     -0.267621     -0.303567
O            -0.206881     -0.256796      0.398742
O            -0.309047     -0.090463     -0.344529
O             0.192882     -0.080571     -0.395582
O             0.299337     -0.256103      0.341440
O            -0.056798     -0.256899     -0.365301
O            -0.472444     -0.076806      0.392725
O             0.044008     -0.070417      0.361111
O             0.441037     -0.232711     -0.396819
Fe            0.161469      0.084272     -0.261871
Fe            0.362280      0.231417      0.468946
Fe           -0.141647      0.251158      0.254646
Fe           -0.361694      0.077515     -0.465876
H            -0.081393      0.079624     -0.438225
H            -0.394970      0.234275      0.294014
H             0.064142      0.238579      0.446589
H             0.424773      0.077205     -0.286063
O            -0.198076      0.092756      0.411833
O            -0.297678      0.238964     -0.343341
O             0.194056      0.239856     -0.412687
O             0.281107      0.071358      0.353699
O            -0.053058      0.077608     -0.338320
O            -0.446726      0.233304      0.384615
O             0.038860      0.257322      0.346874
O             0.441469      0.089772     -0.389210
Fe            0.152668      0.408248     -0.295717
Cu            0.362553     -0.430708      0.476643
Fe           -0.140739     -0.405288      0.274128
Fe           -0.352546      0.402705     -0.472920
H            -0.064565      0.394694     -0.465971
H            -0.412684     -0.386674      0.308778
H             0.080068     -0.424524      0.432838
H             0.419460      0.416541     -0.291871
O            -0.206914      0.411395      0.398101
O            -0.310997     -0.417695     -0.331768
O             0.183212     -0.414945     -0.410498
O             0.311635      0.394507      0.344202
O            -0.045448      0.386587     -0.363161
O            -0.444352     -0.407594      0.406461
O             0.049136     -0.409580      0.334368
O             0.449618      0.407787     -0.391303
H            -0.489498      0.017089      0.348631
H             0.038279     -0.229410      0.110793
H             0.255070     -0.354003      0.174887
data_nwchem_pspw

_audit_creation_date   Tue Nov 14 01:58:48 2023
_audit_creation_method    generated by PSPW module of NWChem


_cell_length_a            10.0667
_cell_length_b             9.1552
_cell_length_c             9.2041
_cell_angle_alpha         90.0000
_cell_angle_beta          90.0000
_cell_angle_gamma         90.0000

_symmetry_space_group_name_H-M     P1  

loop_
_atom_site_type_symbol
_atom_site_fract_x
_atom_site_fract_y
_atom_site_fract_z
H             0.185241     -0.251167      0.334974
Fe            0.347359     -0.090909     -0.019067
Fe           -0.142092     -0.093779     -0.236918
Fe           -0.356227     -0.252140      0.020684
H            -0.105766     -0.229569      0.045136
H            -0.430923     -0.090973     -0.211919
H             0.087929     -0.076779     -0.046800
H             0.388758     -0.246198      0.192921
O            -0.195158     -0.242390     -0.091572
O            -0.300172     -0.081426      0.158086
O             0.193006     -0.088308      0.083611
O             0.308457     -0.248212     -0.156383
O            -0.055389     -0.247946      0.142953
O            -0.445627     -0.082931     -0.107624
O             0.052684     -0.083977     -0.148629
O             0.448566     -0.244645      0.108977
Fe            0.156143      0.061588      0.217600
Fe            0.359305      0.236079     -0.006942
Fe           -0.144804      0.256083     -0.219427
Fe           -0.361504      0.095656      0.009932
H            -0.072978      0.059691      0.049493
H            -0.401083      0.271539     -0.205018
H             0.095292      0.231594     -0.055172
H             0.427614      0.070273      0.223655
O            -0.194408      0.076827     -0.106365
O            -0.301910      0.245472      0.149624
O             0.203947      0.239340      0.101621
O             0.291306      0.080485     -0.142113
O            -0.042043      0.080119      0.146322
O            -0.443819      0.248801     -0.107808
O             0.072180      0.252282     -0.155514
O             0.460291      0.088589      0.123814
Fe            0.145176      0.406474      0.228570
Fe            0.370355     -0.421962     -0.055146
Fe           -0.127867     -0.418795     -0.220288
Fe           -0.347350      0.419701      0.027147
H            -0.070440      0.404104      0.047618
H            -0.389935     -0.430811     -0.208216
H             0.101027     -0.441443     -0.045120
H             0.409170      0.443327      0.196523
O            -0.200422      0.422301     -0.089519
O            -0.307912     -0.420090      0.162493
O             0.201227     -0.431033      0.088154
O             0.301239      0.410049     -0.151560
O            -0.045629      0.403822      0.148323
O            -0.431862     -0.423926     -0.108548
O             0.056409     -0.408507     -0.134422
O             0.454457      0.413585      0.107859
Fe            0.144035     -0.240120     -0.269549
Fe            0.336631     -0.077121      0.472762
Fe           -0.131909     -0.084581      0.285614
Fe           -0.357535     -0.236920     -0.463866
H            -0.091006     -0.268913     -0.459783
H            -0.358306     -0.086678      0.243967
H             0.081530     -0.066458      0.441056
H             0.409776     -0.219038     -0.301445
O            -0.201551     -0.255547      0.406513
O            -0.296945     -0.064579     -0.344105
O             0.193974     -0.081215     -0.399497
O             0.279812     -0.245689      0.351900
O            -0.058121     -0.261275     -0.359183
O            -0.467571     -0.113055      0.381697
O             0.062777     -0.078210      0.339077
O             0.443015     -0.223673     -0.400769
Fe            0.142416      0.087981     -0.276711
Fe            0.347378      0.265200      0.464342
Fe           -0.144875      0.237521      0.270073
Fe           -0.351216      0.100393     -0.464774
H            -0.080045      0.089735     -0.449145
H            -0.405241      0.245702      0.303686
H             0.080678      0.235440      0.442376
H             0.421566      0.110839     -0.299377
O            -0.213597      0.079753      0.397720
O            -0.315592      0.257641     -0.329257
O             0.187224      0.253226     -0.420051
O             0.314023      0.093751      0.333116
O            -0.064766      0.086207     -0.345753
O            -0.448270      0.248617      0.396217
O             0.045046      0.228023      0.344626
O             0.443697      0.097525     -0.401759
Fe            0.151659      0.417216     -0.280149
Cu            0.350849     -0.407988      0.490291
Fe           -0.156635     -0.429845      0.287675
Fe           -0.358470      0.428660     -0.480590
H            -0.078706      0.419233     -0.453406
H            -0.412809     -0.399178      0.303496
H             0.067675     -0.407046      0.452777
H             0.414851      0.390555     -0.295239
O            -0.204841      0.404163      0.402312
O            -0.304089     -0.405201     -0.339035
O             0.173654     -0.414575     -0.398913
O             0.289926      0.434961      0.355344
O            -0.049413      0.421772     -0.352987
O            -0.448824     -0.420797      0.399287
O             0.033933     -0.418252      0.351188
O             0.438756      0.403447     -0.395776
H            -0.494140     -0.185803      0.312907
H             0.035488     -0.226745      0.132353
H             0.199638     -0.350665      0.155996
data_nwchem_pspw

_audit_creation_date   Tue Nov 14 04:03:19 2023
_audit_creation_method    generated by PSPW module of NWChem


_cell_length_a            10.0667
_cell_length_b             9.1552
_cell_length_c             9.2041
_cell_angle_alpha         90.0000
_cell_angle_beta          90.0000
_cell_angle_gamma         90.0000

_symmetry_space_group_name_H-M     P1  

loop_
_atom_site_type_symbol
_atom_site_fract_x
_atom_site_fract_y
_atom_site_fract_z
H             0.227019     -0.243686      0.344382
Fe            0.339105     -0.086928     -0.024829
Fe           -0.154621     -0.078525     -0.237265
Fe           -0.360300     -0.251651      0.027410
H            -0.120854     -0.257665     -0.009430
H            -0.442216     -0.090134     -0.193565
H             0.084229     -0.062222     -0.048959
H             0.405926     -0.257203      0.190639
O            -0.195713     -0.238159     -0.088398
O            -0.303834     -0.079357      0.141986
O             0.178228     -0.104658      0.101415
O             0.293006     -0.257418     -0.161150
O            -0.056376     -0.258301      0.137219
O            -0.465889     -0.084814     -0.093267
O             0.046263     -0.072767     -0.144544
O             0.435570     -0.255298      0.089424
Fe            0.147492      0.052576      0.233045
Fe            0.347056      0.258788     -0.006695
Fe           -0.138098      0.242518     -0.225120
Fe           -0.365879      0.103163      0.005650
H            -0.050999      0.074286      0.043575
H            -0.414776      0.252696     -0.209940
H             0.108812      0.244536     -0.045387
H             0.398609      0.086459      0.201335
O            -0.197703      0.082017     -0.096067
O            -0.311291      0.245505      0.149358
O             0.199232      0.247954      0.117622
O             0.297370      0.090824     -0.135387
O            -0.034009      0.072351      0.144952
O            -0.465013      0.262804     -0.117978
O             0.060616      0.248344     -0.140343
O             0.446887      0.079776      0.105304
Fe            0.155924      0.407913      0.247153
Fe            0.353782     -0.422528     -0.052624
Fe           -0.162708     -0.423317     -0.223694
Fe           -0.350154      0.416624      0.021435
H            -0.078170      0.397367      0.041757
H            -0.409420     -0.417850     -0.210147
H             0.065507     -0.422015     -0.044569
H             0.440277      0.438431      0.197648
O            -0.214796      0.400877     -0.107328
O            -0.307668     -0.421403      0.156414
O             0.207016     -0.422197      0.102401
O             0.283191      0.403858     -0.150316
O            -0.057659      0.392409      0.143472
O            -0.454811     -0.415605     -0.116310
O             0.033225     -0.411119     -0.141927
O             0.447657      0.436283      0.093344
Fe            0.139122     -0.226144     -0.280007
Fe            0.354901     -0.075340      0.495614
Fe           -0.130188     -0.088260      0.261308
Fe           -0.359880     -0.252473     -0.487166
H            -0.093719     -0.244734     -0.448009
H            -0.368327     -0.060872      0.218985
H             0.030670     -0.046275      0.466180
H             0.398428     -0.251968     -0.294765
O            -0.196207     -0.252334      0.396000
O            -0.298169     -0.075709     -0.372402
O             0.195654     -0.059851     -0.396521
O             0.322016     -0.251006      0.357753
O            -0.064310     -0.254807     -0.347659
O            -0.437412     -0.060655      0.381645
O             0.038529     -0.081813      0.369542
O             0.453073     -0.247864     -0.383264
Fe            0.143898      0.095269     -0.271515
Fe            0.352985      0.245124      0.477445
Fe           -0.146742      0.249818      0.272696
Fe           -0.342101      0.085335     -0.488293
H            -0.093169      0.108334     -0.456964
H            -0.406792      0.250294      0.311760
H             0.077590      0.237739      0.461747
H             0.425519      0.088022     -0.292294
O            -0.185348      0.079722      0.392897
O            -0.287706      0.243955     -0.351740
O             0.200472      0.248181     -0.404709
O             0.309082      0.081772      0.339924
O            -0.058659      0.091503     -0.357976
O            -0.442728      0.247417      0.408933
O             0.054018      0.239449      0.359497
O             0.452098      0.081816     -0.393098
Fe            0.139744      0.412602     -0.276823
Cu            0.367729     -0.413346      0.493047
Fe           -0.125192     -0.419141      0.281352
Fe           -0.345897      0.423543     -0.472340
H            -0.058232      0.411796     -0.446825
H            -0.401770     -0.418383      0.295444
H             0.085850     -0.406058      0.449204
H             0.443942      0.436159     -0.286952
O            -0.196770      0.412421      0.402385
O            -0.309538     -0.411559     -0.343635
O             0.182744     -0.417468     -0.394021
O             0.318022      0.413657      0.363220
O            -0.055171      0.421684     -0.343835
O            -0.434983     -0.420339      0.401162
O             0.061626     -0.417465      0.345351
O             0.460956      0.413172     -0.386994
H             0.487793     -0.028649      0.323810
H             0.038097     -0.238382      0.136121
H             0.214424     -0.333120      0.155749
data_nwchem_pspw

_audit_creation_date   Tue Nov 14 05:55:04 2023
_audit_creation_method    generated by PSPW module of NWChem


_cell_length_a            10.0667
_cell_length_b             9.1552
_cell_length_c             9.2041
_cell_angle_alpha         90.0000
_cell_angle_beta          90.0000
_cell_angle_gamma         90.0000

_symmetry_space_group_name_H-M     P1  

loop_
_atom_site_type_symbol
_atom_site_fract_x
_atom_site_fract_y
_atom_site_fract_z
H             0.236283     -0.260973      0.320170
Fe            0.340806     -0.081946     -0.008757
Fe           -0.144921     -0.099573     -0.238122
Fe           -0.349629     -0.267742      0.013110
H            -0.084279     -0.254822      0.032283
H            -0.420697     -0.079644     -0.205637
H             0.085464     -0.086782     -0.042133
H             0.428600     -0.286157      0.196220
O            -0.198369     -0.252009     -0.098938
O            -0.287356     -0.086318      0.143564
O             0.187225     -0.085737      0.112923
O             0.296919     -0.254887     -0.153934
O            -0.058956     -0.241246      0.134165
O            -0.442200     -0.073358     -0.103788
O             0.048491     -0.085246     -0.141537
O             0.447709     -0.262138      0.096417
Fe            0.152110      0.087252      0.232960
Fe            0.357874      0.253642     -0.030268
Fe           -0.147426      0.239714     -0.227899
Fe           -0.360437      0.075220      0.001770
H            -0.101067      0.100271      0.057706
H            -0.422472      0.275036     -0.199133
H             0.076165      0.268309     -0.040835
H             0.412053      0.099870      0.204628
O            -0.194104      0.073696     -0.096355
O            -0.297413      0.249111      0.143899
O             0.191424      0.247041      0.097565
O             0.303286      0.082482     -0.146634
O            -0.045113      0.100915      0.143639
O            -0.444245      0.264992     -0.096717
O             0.045364      0.268849     -0.140690
O             0.453139      0.078927      0.110990
Fe            0.149524      0.422307      0.241243
Fe            0.358119     -0.410224     -0.039654
Fe           -0.142748     -0.426410     -0.233583
Fe           -0.339790      0.428066      0.034343
H            -0.048290      0.401030      0.054581
H            -0.415494     -0.416769     -0.211790
H             0.088194     -0.442082     -0.053490
H             0.403034      0.422419      0.190884
O            -0.187367      0.414793     -0.105862
O            -0.297692     -0.404525      0.159120
O             0.206031     -0.410357      0.099348
O             0.304250      0.414418     -0.171381
O            -0.035433      0.438733      0.150650
O            -0.440132     -0.424873     -0.116230
O             0.054472     -0.420676     -0.149391
O             0.448220      0.410407      0.098379
Fe            0.140411     -0.265965     -0.277730
Fe            0.332307     -0.082378      0.499911
Fe           -0.137878     -0.059820      0.290864
Fe           -0.364979     -0.256276     -0.490749
H            -0.097429     -0.241405     -0.460028
H            -0.362719     -0.093281      0.228554
H             0.041119     -0.107477      0.458970
H             0.421254     -0.256630     -0.294511
O            -0.203278     -0.251681      0.404886
O            -0.307522     -0.102605     -0.353800
O             0.178749     -0.071794     -0.400274
O             0.319423     -0.249667      0.368543
O            -0.058745     -0.249953     -0.361857
O            -0.451298     -0.075429      0.374356
O             0.043618     -0.082781      0.357904
O             0.428742     -0.253558     -0.398306
Fe            0.139277      0.082899     -0.249494
Fe            0.364673      0.253966      0.485531
Fe           -0.140749      0.257074      0.273384
Fe           -0.362798      0.085563     -0.476109
H            -0.103556      0.091771     -0.440672
H            -0.437847      0.238597      0.282012
H             0.064881      0.243279      0.469879
H             0.416460      0.079112     -0.291318
O            -0.196289      0.086127      0.427145
O            -0.307482      0.254614     -0.351874
O             0.206469      0.240175     -0.386033
O             0.294508      0.076442      0.365062
O            -0.052004      0.081416     -0.346817
O            -0.441768      0.249502      0.388337
O             0.052672      0.249307      0.365637
O             0.457060      0.072587     -0.388201
Fe            0.148630      0.417025     -0.283898
Cu            0.356705     -0.422479      0.479887
Fe           -0.130801     -0.398330      0.273295
Fe           -0.358133      0.413868     -0.482545
H            -0.091642      0.402114     -0.459611
H            -0.405833     -0.426839      0.292912
H             0.090769     -0.380069      0.448047
H             0.420058      0.422538     -0.295412
O            -0.221516      0.427491      0.382819
O            -0.308867     -0.419187     -0.342680
O             0.168163     -0.424697     -0.424023
O             0.305686      0.405600      0.350147
O            -0.064291      0.407631     -0.359472
O            -0.444178     -0.421820      0.391714
O             0.055663     -0.397195      0.348569
O             0.449541      0.420542     -0.398793
H             0.492552     -0.017747      0.314824
H             0.031127     -0.205079      0.126713
H             0.180074     -0.311484      0.118724
data_nwchem_pspw

_audit_creation_date   Tue Nov 14 07:57:37 2023
_audit_creation_method    generated by PSPW module of NWChem


_cell_length_a            10.0667
_cell_length_b             9.1552
_cell_length_c             9.2041
_cell_angle_alpha         90.0000
_cell_angle_beta          90.0000
_cell_angle_gamma         90.0000

_symmetry_space_group_name_H-M     P1  

loop_
_atom_site_type_symbol
_atom_site_fract_x
_atom_site_fract_y
_atom_site_fract_z
H             0.195179     -0.226851      0.338140
Fe            0.346351     -0.074937     -0.020870
Fe           -0.153275     -0.068048     -0.231519
Fe           -0.367199     -0.263375      0.025200
H            -0.112781     -0.250617      0.043154
H            -0.423366     -0.089973     -0.197394
H             0.060741     -0.073923     -0.056309
H             0.391450     -0.249303      0.213434
O            -0.197387     -0.245311     -0.095090
O            -0.311374     -0.087185      0.161702
O             0.188201     -0.087256      0.081370
O             0.301494     -0.244693     -0.133610
O            -0.064812     -0.259091      0.141780
O            -0.444183     -0.087886     -0.095296
O             0.048571     -0.065095     -0.161433
O             0.437408     -0.255177      0.119191
Fe            0.150955      0.059557      0.218004
Fe            0.348919      0.251276     -0.016183
Fe           -0.137289      0.259640     -0.216340
Fe           -0.352788      0.097514      0.016357
H            -0.082697      0.086565      0.047555
H            -0.449620      0.278336     -0.204032
H             0.101373      0.284104     -0.053064
H             0.414423      0.077328      0.188373
O            -0.191377      0.103647     -0.093404
O            -0.295925      0.240526      0.157662
O             0.188694      0.243662      0.099924
O             0.302141      0.094981     -0.160115
O            -0.051026      0.073437      0.146948
O            -0.442426      0.258052     -0.101399
O             0.063599      0.272951     -0.148081
O             0.448414      0.091377      0.089671
Fe            0.142498      0.402069      0.227233
Fe            0.372400     -0.410786     -0.006607
Fe           -0.134745     -0.406417     -0.222254
Fe           -0.349956      0.409700      0.031551
H            -0.062230      0.423689      0.042373
H            -0.383600     -0.409953     -0.238289
H             0.093042     -0.424901     -0.049638
H             0.419603      0.389747      0.222660
O            -0.192846      0.432415     -0.097595
O            -0.302565     -0.415629      0.154590
O             0.192149     -0.435079      0.094033
O             0.306921      0.424447     -0.152481
O            -0.058230      0.414095      0.146919
O            -0.454728     -0.431380     -0.095055
O             0.060869     -0.389962     -0.141017
O             0.451839      0.404042      0.124074
Fe            0.153144     -0.244928     -0.273072
Fe            0.351826     -0.075623      0.476705
Fe           -0.133951     -0.089225      0.280085
Fe           -0.358285     -0.241539     -0.476242
H            -0.065165     -0.245576     -0.452770
H            -0.365618     -0.074138      0.248273
H             0.082547     -0.079536      0.457181
H             0.419901     -0.310510     -0.308029
O            -0.205572     -0.245123      0.389559
O            -0.303756     -0.074081     -0.361983
O             0.191748     -0.070854     -0.419640
O             0.289150     -0.251648      0.345296
O            -0.051081     -0.226161     -0.353007
O            -0.470141     -0.107006      0.378657
O             0.057837     -0.100746      0.355542
O             0.441104     -0.259100     -0.396713
Fe            0.147885      0.093587     -0.273273
Fe            0.341152      0.239206      0.474821
Fe           -0.145770      0.235600      0.266071
Fe           -0.357970      0.095668     -0.465057
H            -0.094890      0.084417     -0.455153
H            -0.389143      0.223023      0.304712
H             0.081683      0.253528      0.443043
H             0.415978      0.093064     -0.290292
O            -0.204061      0.070241      0.406034
O            -0.293665      0.254579     -0.345624
O             0.186939      0.248536     -0.404060
O             0.315654      0.077097      0.333663
O            -0.049734      0.089387     -0.361038
O            -0.446605      0.234132      0.389198
O             0.042864      0.243094      0.346771
O             0.437778      0.093023     -0.395659
Fe            0.161379      0.431349     -0.281866
Cu            0.353478     -0.418055      0.461822
Fe           -0.145705     -0.426610      0.287207
Fe           -0.355615      0.411144     -0.485728
H            -0.069223      0.405761     -0.446206
H            -0.400359     -0.413382      0.292318
H             0.084297     -0.414715      0.444407
H             0.438062      0.425777     -0.309509
O            -0.198304      0.397340      0.394584
O            -0.324012     -0.403687     -0.330901
O             0.190004     -0.402767     -0.408091
O             0.295334      0.404925      0.352992
O            -0.056745      0.415022     -0.343045
O            -0.432192     -0.417196      0.393314
O             0.040626     -0.450493      0.357435
O             0.447528      0.402267     -0.410965
H            -0.481106     -0.192099      0.318254
H             0.025865     -0.291876      0.125008
H             0.196604     -0.365388      0.170879
data_nwchem_pspw

_audit_creation_date   Tue Nov 14 10:14:47 2023
_audit_creation_method    generated by PSPW module of NWChem


_cell_length_a            10.0667
_cell_length_b             9.1552
_cell_length_c             9.2041
_cell_angle_alpha         90.0000
_cell_angle_beta          90.0000
_cell_angle_gamma         90.0000

_symmetry_space_group_name_H-M     P1  

loop_
_atom_site_type_symbol
_atom_site_fract_x
_atom_site_fract_y
_atom_site_fract_z
H             0.220302     -0.223886      0.321058
Fe            0.349012     -0.076457     -0.022831
Fe           -0.145852     -0.095831     -0.224552
Fe           -0.356417     -0.260472      0.025912
H            -0.121523     -0.248468      0.024156
H            -0.420242     -0.096692     -0.196674
H             0.078162     -0.098203     -0.050535
H             0.403956     -0.251606      0.191692
O            -0.202937     -0.264972     -0.089239
O            -0.310023     -0.089984      0.171954
O             0.180629     -0.085971      0.084075
O             0.304127     -0.243228     -0.168348
O            -0.075165     -0.224932      0.127348
O            -0.448909     -0.072503     -0.100570
O             0.046703     -0.099335     -0.151396
O             0.449935     -0.218352      0.100158
Fe            0.130928      0.074935      0.196495
Fe            0.355722      0.256410     -0.015104
Fe           -0.152164      0.239309     -0.210903
Fe           -0.366661      0.076667      0.034307
H            -0.111617      0.063886      0.047588
H            -0.414477      0.253533     -0.193453
H             0.080833      0.233806     -0.040559
H             0.390857      0.097054      0.205683
O            -0.204800      0.064591     -0.088975
O            -0.306279      0.252479      0.143258
O             0.203380      0.257896      0.120394
O             0.282581      0.098030     -0.141769
O            -0.064925      0.082343      0.137309
O            -0.446821      0.239922     -0.095839
O             0.041986      0.219750     -0.134146
O             0.446570      0.093544      0.117833
Fe            0.147817      0.416738      0.245380
Fe            0.352597     -0.419200     -0.049623
Fe           -0.150404     -0.423710     -0.223389
Fe           -0.351966      0.411741      0.023958
H            -0.068089      0.457187      0.033653
H            -0.421937     -0.386064     -0.204847
H             0.100893     -0.415994     -0.033393
H             0.409045      0.433373      0.205744
O            -0.213013      0.406842     -0.106600
O            -0.314083     -0.418609      0.160818
O             0.206645     -0.403791      0.093050
O             0.301769      0.413885     -0.151907
O            -0.054063      0.429953      0.135280
O            -0.447780     -0.408968     -0.107412
O             0.059088     -0.427415     -0.130406
O             0.436927      0.422268      0.103350
Fe            0.146043     -0.260920     -0.276128
Fe            0.348929     -0.078623      0.484749
Fe           -0.132465     -0.068538      0.294716
Fe           -0.354576     -0.250077     -0.473177
H            -0.102173     -0.266996     -0.446607
H            -0.379076     -0.105416      0.242673
H             0.089145     -0.104308      0.425812
H             0.414392     -0.276021     -0.309477
O            -0.191370     -0.251291      0.412380
O            -0.297230     -0.068678     -0.342838
O             0.193048     -0.092816     -0.399641
O             0.313847     -0.243741      0.336318
O            -0.061193     -0.243866     -0.351359
O            -0.450158     -0.055074      0.402087
O             0.051374     -0.088140      0.331445
O             0.459958     -0.244033     -0.399027
Fe            0.135973      0.085784     -0.281372
Fe            0.359406      0.249191      0.444417
Fe           -0.143102      0.260994      0.264716
Fe           -0.355682      0.088154     -0.459493
H            -0.110718      0.086438     -0.443643
H            -0.418794      0.251518      0.299096
H             0.107125      0.231148      0.440859
H             0.423856      0.129642     -0.295533
O            -0.195050      0.092373      0.397967
O            -0.296954      0.247863     -0.338854
O             0.211910      0.240461     -0.403649
O             0.298908      0.082344      0.338938
O            -0.058165      0.077653     -0.352899
O            -0.434259      0.250347      0.403062
O             0.061092      0.245341      0.348470
O             0.449928      0.085634     -0.388301
Fe            0.147024      0.421444     -0.276323
Cu            0.372802     -0.414350      0.473658
Fe           -0.135930     -0.413613      0.276964
Fe           -0.348001      0.413176     -0.471198
H            -0.070336      0.414735     -0.454938
H            -0.407211     -0.409649      0.298389
H             0.100829     -0.416770      0.459576
H             0.404489      0.412783     -0.316247
O            -0.193438      0.415455      0.395795
O            -0.290274     -0.416621     -0.347814
O             0.200527     -0.419754     -0.404817
O             0.315921      0.423497      0.343529
O            -0.054414      0.406486     -0.351448
O            -0.430387     -0.408784      0.401534
O             0.058179     -0.431843      0.363714
O             0.443508      0.418867     -0.414367
H            -0.474421      0.006361      0.322642
H             0.017957     -0.208695      0.126413
H             0.193094     -0.307147      0.131677
data_nwchem_pspw

_audit_creation_date   Tue Nov 14 12:12:04 2023
_audit_creation_method    generated by PSPW module of NWChem


_cell_length_a            10.0667
_cell_length_b             9.1552
_cell_length_c             9.2041
_cell_angle_alpha         90.0000
_cell_angle_beta          90.0000
_cell_angle_gamma         90.0000

_symmetry_space_group_name_H-M     P1  

loop_
_atom_site_type_symbol
_atom_site_fract_x
_atom_site_fract_y
_atom_site_fract_z
H             0.208372     -0.253994      0.372122
Fe            0.347124     -0.086891     -0.020316
Fe           -0.160832     -0.072195     -0.227071
Fe           -0.352286     -0.257450      0.005548
H            -0.072053     -0.240789      0.028708
H            -0.431813     -0.117769     -0.210248
H             0.104115     -0.073788     -0.051249
H             0.417255     -0.231251      0.208956
O            -0.185959     -0.262106     -0.090366
O            -0.302220     -0.088320      0.155050
O             0.177840     -0.098481      0.083498
O             0.301502     -0.249907     -0.156034
O            -0.041609     -0.240095      0.132119
O            -0.455430     -0.084546     -0.114198
O             0.051311     -0.076193     -0.151218
O             0.456332     -0.245742      0.115366
Fe            0.153517      0.055943      0.242883
Fe            0.340076      0.241197     -0.016089
Fe           -0.153167      0.251306     -0.226164
Fe           -0.366547      0.094922      0.012651
H            -0.072557      0.067653      0.057639
H            -0.420523      0.286562     -0.195318
H             0.099084      0.256026     -0.050929
H             0.400277      0.067686      0.213652
O            -0.199557      0.088432     -0.099616
O            -0.313460      0.250127      0.153386
O             0.187255      0.252254      0.097387
O             0.306419      0.083448     -0.149377
O            -0.049665      0.080404      0.157646
O            -0.444381      0.252984     -0.101052
O             0.059653      0.259850     -0.149139
O             0.438490      0.067193      0.113983
Fe            0.148121      0.406403      0.227205
Fe            0.363490     -0.417588     -0.044265
Fe           -0.131708     -0.416132     -0.236871
Fe           -0.343429      0.419365      0.009531
H            -0.088978      0.411165      0.053036
H            -0.402301     -0.426815     -0.219887
H             0.087553     -0.421755     -0.048773
H             0.429855      0.430171      0.200588
O            -0.194653      0.405224     -0.092688
O            -0.286004     -0.421581      0.152952
O             0.216952     -0.416469      0.089228
O             0.309213      0.420702     -0.163081
O            -0.049514      0.416162      0.150632
O            -0.431078     -0.427509     -0.117709
O             0.057900     -0.429962     -0.149314
O             0.454793      0.425534      0.099050
Fe            0.135989     -0.256012     -0.275495
Fe            0.349673     -0.087797     -0.493314
Fe           -0.139315     -0.064886      0.301893
Fe           -0.355883     -0.255893     -0.481585
H            -0.074654     -0.241003     -0.452217
H            -0.355443     -0.119660      0.232169
H             0.064534     -0.066709      0.481236
H             0.405165     -0.251952     -0.282982
O            -0.188041     -0.240245      0.396144
O            -0.314483     -0.082366     -0.342174
O             0.196494     -0.082342     -0.379193
O             0.302541     -0.249188      0.361818
O            -0.057090     -0.244146     -0.348971
O            -0.451217     -0.075844      0.406193
O             0.028478     -0.058640      0.385113
O             0.446639     -0.247238     -0.380731
Fe            0.141017      0.093043     -0.256757
Fe            0.341428      0.249988      0.475165
Fe           -0.154161      0.253407      0.273184
Fe           -0.364981      0.091182     -0.482002
H            -0.080318      0.106076     -0.448367
H            -0.441358      0.251960      0.293436
H             0.091982      0.234075      0.453893
H             0.410813      0.090586     -0.288091
O            -0.193941      0.101967      0.419151
O            -0.311094      0.247363     -0.340747
O             0.193776      0.245482     -0.401741
O             0.314467      0.060684      0.352431
O            -0.059883      0.103679     -0.344933
O            -0.455739      0.254684      0.397352
O             0.059532      0.227697      0.353710
O             0.449828      0.077126     -0.386790
Fe            0.153007      0.422552     -0.286507
Cu            0.359261     -0.414422      0.479994
Fe           -0.123039     -0.418047      0.263929
Fe           -0.350899      0.414901     -0.488077
H            -0.084073      0.413487     -0.462044
H            -0.391866     -0.415702      0.292180
H             0.087389     -0.414322      0.435775
H             0.426711      0.418996     -0.297209
O            -0.190392      0.424245      0.411088
O            -0.307616     -0.413252     -0.344705
O             0.182419     -0.405733     -0.405147
O             0.303329      0.422679      0.340630
O            -0.058001      0.412341     -0.360256
O            -0.440049     -0.424670      0.384189
O             0.058291     -0.421274      0.334817
O             0.445036      0.415542     -0.399186
H            -0.498732     -0.055168      0.318952
H             0.052398     -0.231884      0.121285
H             0.230041     -0.330454      0.146637
data_nwchem_pspw

_audit_creation_date   Tue Nov 14 17:02:34 2023
_audit_creation_method    generated by PSPW module of NWChem


_cell_length_a            10.0667
_cell_length_b             9.1552
_cell_length_c             9.2041
_cell_angle_alpha         90.0000
_cell_angle_beta          90.0000
_cell_angle_gamma         90.0000

_symmetry_space_group_name_H-M     P1  

loop_
_atom_site_type_symbol
_atom_site_fract_x
_atom_site_fract_y
_atom_site_fract_z
H             0.203139     -0.203752      0.342915
Fe            0.347871     -0.081132     -0.024954
Fe           -0.160480     -0.090053     -0.229701
Fe           -0.355941     -0.252434      0.020090
H            -0.088844     -0.278377      0.040868
H            -0.417495     -0.074189     -0.198139
H             0.091183     -0.076826     -0.049518
H             0.411933     -0.249696      0.193788
O            -0.200584     -0.251261     -0.095952
O            -0.297122     -0.075681      0.145842
O             0.204576     -0.088406      0.099166
O             0.308941     -0.254217     -0.154390
O            -0.051458     -0.275536      0.133215
O            -0.441344     -0.084033     -0.095703
O             0.049603     -0.084836     -0.143781
O             0.447062     -0.258340      0.097694
Fe            0.154110      0.065740      0.220217
Fe            0.355493      0.262244     -0.029871
Fe           -0.147646      0.246621     -0.242552
Fe           -0.344491      0.095693      0.003828
H            -0.070177      0.078598      0.027665
H            -0.411962      0.257536     -0.205960
H             0.082639      0.250214     -0.044448
H             0.426508      0.127241      0.197121
O            -0.185646      0.083479     -0.108151
O            -0.298346      0.245560      0.141843
O             0.199959      0.247182      0.093777
O             0.288859      0.091255     -0.152311
O            -0.040204      0.073911      0.128007
O            -0.442974      0.255296     -0.104948
O             0.043571      0.249309     -0.142798
O             0.441251      0.091358      0.098886
Fe            0.138444      0.403713      0.245629
Fe            0.361984     -0.423924     -0.015469
Fe           -0.146920     -0.419067     -0.219819
Fe           -0.350246      0.415232      0.028444
H            -0.100351      0.419930      0.050630
H            -0.427372     -0.433103     -0.201252
H             0.109136     -0.405856     -0.052210
H             0.437830      0.434071      0.211148
O            -0.190264      0.420184     -0.093658
O            -0.302597     -0.394332      0.165366
O             0.202220     -0.434065      0.104720
O             0.305102      0.433925     -0.153605
O            -0.056101      0.420454      0.146500
O            -0.442644     -0.436291     -0.097590
O             0.052490     -0.415303     -0.135816
O             0.465492      0.416773      0.112563
Fe            0.154037     -0.247821     -0.272059
Fe            0.356206     -0.067542      0.487656
Fe           -0.127418     -0.091403      0.255069
Fe           -0.353413     -0.247735     -0.483526
H            -0.046226     -0.243708     -0.446715
H            -0.335686     -0.094015      0.239662
H             0.084442     -0.058244      0.442749
H             0.388135     -0.252729     -0.312879
O            -0.189457     -0.241114      0.391271
O            -0.307702     -0.082185     -0.350331
O             0.201615     -0.076075     -0.400660
O             0.297855     -0.209235      0.358242
O            -0.039563     -0.249559     -0.343847
O            -0.459812     -0.067696      0.407308
O             0.051666     -0.082950      0.347748
O             0.439469     -0.235143     -0.401979
Fe            0.138278      0.082549     -0.276208
Fe            0.337467      0.260485      0.486524
Fe           -0.144029      0.245061      0.262117
Fe           -0.347198      0.086872     -0.482291
H            -0.082168      0.067126     -0.460737
H            -0.410585      0.236550      0.299261
H             0.064281      0.248804      0.457837
H             0.398851      0.085954     -0.290497
O            -0.209576      0.079938      0.384275
O            -0.314309      0.245034     -0.350070
O             0.189018      0.252767     -0.395239
O             0.301625      0.088428      0.360172
O            -0.046364      0.088391     -0.365813
O            -0.446588      0.234145      0.397586
O             0.035781      0.253293      0.357307
O             0.427125      0.092817     -0.392256
Fe            0.145569      0.420426     -0.264904
Cu            0.365966     -0.415196      0.487011
Fe           -0.155237     -0.423118      0.290703
Fe           -0.366548      0.414012     -0.480085
H            -0.066760      0.446605     -0.438255
H            -0.424095     -0.406517      0.299415
H             0.072373     -0.419786      0.458062
H             0.414032      0.410016     -0.286042
O            -0.207680      0.409044      0.402704
O            -0.302433     -0.415031     -0.348710
O             0.192387     -0.416960     -0.396226
O             0.296169      0.416242      0.359630
O            -0.050956      0.418173     -0.339359
O            -0.458844     -0.407509      0.397631
O             0.044412     -0.439638      0.359805
O             0.443167      0.400749     -0.386418
H            -0.468117     -0.020396      0.314926
H             0.042519     -0.288416      0.129171
H             0.222033     -0.376999      0.188704
data_nwchem_pspw

_audit_creation_date   Tue Nov 14 19:54:43 2023
_audit_creation_method    generated by PSPW module of NWChem


_cell_length_a            10.0667
_cell_length_b             9.1552
_cell_length_c             9.2041
_cell_angle_alpha         90.0000
_cell_angle_beta          90.0000
_cell_angle_gamma         90.0000

_symmetry_space_group_name_H-M     P1  

loop_
_atom_site_type_symbol
_atom_site_fract_x
_atom_site_fract_y
_atom_site_fract_z
H             0.205706     -0.252894      0.351191
Fe            0.351309     -0.094334     -0.026325
Fe           -0.133860     -0.079807     -0.235602
Fe           -0.349087     -0.244788      0.022792
H            -0.094217     -0.245620      0.025218
H            -0.403734     -0.073263     -0.193654
H             0.091579     -0.097819     -0.048495
H             0.412160     -0.246266      0.212249
O            -0.182508     -0.238759     -0.095846
O            -0.300571     -0.071355      0.155216
O             0.194339     -0.076395      0.072982
O             0.299696     -0.249690     -0.152697
O            -0.041538     -0.237187      0.119000
O            -0.443223     -0.095687     -0.100919
O             0.057493     -0.091502     -0.150910
O             0.447786     -0.238778      0.112493
Fe            0.134667      0.072144      0.215570
Fe            0.344509      0.242571     -0.015094
Fe           -0.156025      0.256693     -0.216157
Fe           -0.362832      0.092413      0.018798
H            -0.106725      0.072863      0.050810
H            -0.409457      0.265056     -0.188019
H             0.071000      0.249425     -0.045953
H             0.394145      0.100457      0.203857
O            -0.194216      0.070849     -0.100578
O            -0.296615      0.236238      0.158551
O             0.197376      0.253144      0.112910
O             0.314976      0.085428     -0.153480
O            -0.059895      0.084254      0.144289
O            -0.449640      0.258812     -0.092398
O             0.051044      0.245881     -0.149164
O             0.447785      0.097693      0.114205
Fe            0.149020      0.416361      0.249060
Fe            0.347360     -0.428443     -0.041446
Fe           -0.161989     -0.411433     -0.220750
Fe           -0.361347      0.411003      0.053347
H            -0.083798      0.402265      0.037924
H            -0.409563     -0.423513     -0.182012
H             0.082035     -0.436454     -0.062904
H             0.403740      0.427950      0.198718
O            -0.207619      0.422466     -0.104981
O            -0.275373     -0.425582      0.141708
O             0.199786     -0.430102      0.094961
O             0.298953      0.417961     -0.169788
O            -0.053293      0.407023      0.138551
O            -0.450148     -0.405336     -0.082714
O             0.048347     -0.428667     -0.160020
O             0.446867      0.428675      0.103712
Fe            0.150449     -0.247760     -0.282771
Fe            0.347140     -0.080685      0.485050
Fe           -0.132714     -0.074625      0.296412
Fe           -0.352896     -0.246139     -0.478725
H            -0.109955     -0.246187     -0.469183
H            -0.349973     -0.089739      0.240137
H             0.071893     -0.058346      0.440673
H             0.424808     -0.233844     -0.309495
O            -0.212592     -0.243335      0.386892
O            -0.296461     -0.087203     -0.355197
O             0.186973     -0.073150     -0.414586
O             0.301214     -0.254622      0.346269
O            -0.074200     -0.254332     -0.372579
O            -0.464430     -0.055675      0.377964
O             0.055146     -0.072908      0.337539
O             0.448336     -0.232031     -0.410578
Fe            0.148471      0.076797     -0.260236
Fe            0.361308      0.244076      0.473673
Fe           -0.141499      0.247634      0.274020
Fe           -0.350222      0.084280     -0.477736
H            -0.072714      0.081935     -0.440301
H            -0.420659      0.246404      0.297201
H             0.081407      0.242753      0.472444
H             0.417595      0.096153     -0.282031
O            -0.196508      0.083864      0.412176
O            -0.303846      0.249093     -0.347921
O             0.205273      0.236259     -0.401512
O             0.290681      0.077007      0.342378
O            -0.053001      0.093181     -0.340193
O            -0.462990      0.256494      0.391399
O             0.042630      0.247016      0.376013
O             0.441949      0.076882     -0.383111
Fe            0.138975      0.411262     -0.297394
Cu            0.368171     -0.426163      0.458156
Fe           -0.131502     -0.413096      0.281129
Fe           -0.348604      0.423889     -0.474650
H            -0.094591      0.377499     -0.445725
H            -0.388074     -0.410055      0.302361
H             0.059414     -0.423403      0.461904
H             0.400831      0.442330     -0.313065
O            -0.194414      0.411092      0.403288
O            -0.322717     -0.403371     -0.324502
O             0.200697     -0.400371     -0.402257
O             0.304856      0.410114      0.352074
O            -0.054832      0.409083     -0.356844
O            -0.429714     -0.412719      0.397553
O             0.040979     -0.429147      0.359096
O             0.453521      0.411580     -0.395770
H             0.487733     -0.013600      0.298661
H             0.049418     -0.210187      0.114041
H             0.222990     -0.358282      0.166764
data_nwchem_pspw

_audit_creation_date   Wed Nov 22 19:41:52 2023
_audit_creation_method    generated by PSPW module of NWChem


_cell_length_a            10.0667
_cell_length_b             9.1552
_cell_length_c             9.2041
_cell_angle_alpha         90.0000
_cell_angle_beta          90.0000
_cell_angle_gamma         90.0000

_symmetry_space_group_name_H-M     P1  

loop_
_atom_site_type_symbol
_atom_site_fract_x
_atom_site_fract_y
_atom_site_fract_z
H             0.211592     -0.244929      0.330323
Fe            0.344250     -0.101634     -0.004297
Fe           -0.153765     -0.093177     -0.220974
Fe           -0.359293     -0.279441      0.004448
H            -0.113342     -0.218222      0.053413
H            -0.403023     -0.073096     -0.216340
H             0.095320     -0.078539     -0.043639
H             0.413562     -0.258275      0.202805
O            -0.200441     -0.268865     -0.096333
O            -0.301321     -0.098278      0.141461
O             0.191297     -0.078348      0.101155
O             0.305217     -0.241202     -0.156048
O            -0.048460     -0.230262      0.134479
O            -0.460283     -0.064720     -0.134190
O             0.055485     -0.064309     -0.138811
O             0.441565     -0.248206      0.102887
Fe            0.154356      0.084842      0.223825
Fe            0.352776      0.252360     -0.028153
Fe           -0.143996      0.253348     -0.224045
Fe           -0.357323      0.079633     -0.002737
H            -0.075097      0.066468      0.038171
H            -0.416361      0.262836     -0.215350
H             0.086267      0.284714     -0.030029
H             0.411817      0.101622      0.199287
O            -0.193891      0.080999     -0.101481
O            -0.304733      0.244912      0.144189
O             0.205616      0.256124      0.112906
O             0.309914      0.097035     -0.144363
O            -0.052345      0.088425      0.139650
O            -0.443744      0.257282     -0.111934
O             0.055300      0.286334     -0.128644
O             0.451173      0.084478      0.104217
Fe            0.141880      0.409317      0.255669
Fe            0.351227     -0.420453     -0.050813
Fe           -0.145258     -0.429996     -0.224212
Fe           -0.368225      0.409830      0.034813
H            -0.081046      0.395495      0.056374
H            -0.418002     -0.445522     -0.203399
H             0.088937     -0.389675     -0.043333
H             0.407093      0.418428      0.219281
O            -0.203579      0.409625     -0.094194
O            -0.314071     -0.418027      0.158583
O             0.188703     -0.435770      0.092852
O             0.291047      0.416572     -0.160738
O            -0.060220      0.415835      0.157077
O            -0.454408     -0.430710     -0.108172
O             0.052667     -0.387798     -0.142160
O             0.439987      0.430176      0.114928
Fe            0.149194     -0.242909     -0.283324
Fe            0.358159     -0.077346      0.484203
Fe           -0.136232     -0.073746      0.289647
Fe           -0.342159     -0.261847     -0.480428
H            -0.078336     -0.247412     -0.447208
H            -0.372835     -0.119956      0.213119
H             0.048524     -0.039217      0.455074
H             0.421216     -0.264260     -0.317128
O            -0.182534     -0.243982      0.409354
O            -0.310890     -0.090791     -0.361063
O             0.203823     -0.064327     -0.388885
O             0.301587     -0.244722      0.360794
O            -0.046899     -0.232737     -0.349171
O            -0.457545     -0.062191      0.375942
O             0.046838     -0.057079      0.354020
O             0.453111     -0.253217     -0.414718
Fe            0.148508      0.094309     -0.260835
Fe            0.349217      0.255405      0.492675
Fe           -0.147423      0.245181      0.269257
Fe           -0.356915      0.084656     -0.476326
H            -0.109659      0.096249     -0.423090
H            -0.426327      0.260516      0.300355
H             0.081778      0.227052      0.449638
H             0.415856      0.091211     -0.283776
O            -0.205899      0.089703      0.400426
O            -0.302008      0.232377     -0.343959
O             0.189095      0.258795     -0.382026
O             0.307154      0.098519      0.362928
O            -0.054092      0.082524     -0.339318
O            -0.452119      0.258476      0.402357
O             0.051414      0.246821      0.352545
O             0.448297      0.092102     -0.385772
Fe            0.140124      0.426680     -0.280403
Cu            0.363815     -0.418641      0.457292
Fe           -0.139261     -0.411305      0.282171
Fe           -0.346451      0.407874     -0.483214
H            -0.076198      0.418151     -0.455124
H            -0.414217     -0.400922      0.291136
H             0.076391     -0.431982      0.463876
H             0.429005      0.428871     -0.301767
O            -0.193628      0.397345      0.410051
O            -0.291233     -0.432700     -0.356582
O             0.176866     -0.407347     -0.412309
O             0.315070      0.403448      0.344272
O            -0.056804      0.422622     -0.351023
O            -0.425537     -0.408046      0.395430
O             0.040154     -0.423742      0.361919
O             0.452354      0.419637     -0.401913
H            -0.463372      0.002095      0.293355
H             0.042911     -0.197422      0.116734
H             0.204963     -0.361303      0.162100
data_nwchem_pspw

_audit_creation_date   Wed Nov 22 22:02:49 2023
_audit_creation_method    generated by PSPW module of NWChem


_cell_length_a            10.0667
_cell_length_b             9.1552
_cell_length_c             9.2041
_cell_angle_alpha         90.0000
_cell_angle_beta          90.0000
_cell_angle_gamma         90.0000

_symmetry_space_group_name_H-M     P1  

loop_
_atom_site_type_symbol
_atom_site_fract_x
_atom_site_fract_y
_atom_site_fract_z
H             0.212607     -0.232308      0.334474
Fe            0.362897     -0.083574     -0.023766
Fe           -0.142867     -0.080002     -0.222879
Fe           -0.350994     -0.252618      0.034041
H            -0.087278     -0.279039      0.033009
H            -0.396130     -0.076152     -0.191029
H             0.095322     -0.095938     -0.040052
H             0.417173     -0.281085      0.210321
O            -0.192786     -0.232783     -0.085433
O            -0.290421     -0.060087      0.164646
O             0.197490     -0.095134      0.108987
O             0.309992     -0.237463     -0.163057
O            -0.055198     -0.245066      0.126690
O            -0.440867     -0.075639     -0.097181
O             0.056266     -0.085980     -0.138260
O             0.452554     -0.247659      0.115365
Fe            0.155225      0.066271      0.226050
Fe            0.348908      0.252374     -0.011967
Fe           -0.154214      0.242216     -0.246554
Fe           -0.355288      0.097639      0.019954
H            -0.087846      0.060960      0.035166
H            -0.441567      0.264329     -0.205267
H             0.075760      0.258674     -0.051841
H             0.433820      0.091812      0.209811
O            -0.209349      0.101755     -0.103175
O            -0.314952      0.245810      0.161392
O             0.178625      0.248950      0.098060
O             0.309232      0.092676     -0.152912
O            -0.064894      0.067716      0.136220
O            -0.453176      0.274639     -0.099849
O             0.043574      0.250780     -0.153290
O             0.456034      0.092496      0.108243
Fe            0.148807      0.417757      0.227254
Fe            0.359779     -0.410607     -0.038614
Fe           -0.146185     -0.414328     -0.225797
Fe           -0.336137      0.420119      0.019463
H            -0.054660      0.440365      0.040559
H            -0.396047     -0.432316     -0.191798
H             0.102904     -0.420210     -0.047099
H             0.426164      0.446026      0.207180
O            -0.216427      0.415346     -0.127665
O            -0.287130     -0.401909      0.161302
O             0.203975     -0.418097      0.097674
O             0.303619      0.419982     -0.150376
O            -0.052794      0.428566      0.147017
O            -0.443821     -0.410132     -0.103840
O             0.043964     -0.419408     -0.131042
O             0.452584      0.431190      0.106562
Fe            0.143335     -0.250773     -0.272200
Fe            0.356898     -0.081664      0.493867
Fe           -0.127197     -0.070297      0.299729
Fe           -0.354609     -0.249079     -0.481600
H            -0.089492     -0.261341     -0.446343
H            -0.343033     -0.050807      0.255355
H             0.079891     -0.081778      0.455994
H             0.439411     -0.245096     -0.305756
O            -0.193817     -0.249779      0.405518
O            -0.305426     -0.078492     -0.347613
O             0.205775     -0.091295     -0.390927
O             0.305836     -0.240981      0.357281
O            -0.054285     -0.257809     -0.347776
O            -0.447291     -0.100709      0.382755
O             0.044845     -0.090060      0.360704
O             0.455281     -0.256235     -0.406637
Fe            0.143821      0.080205     -0.261456
Fe            0.340146      0.240552      0.470889
Fe           -0.145184      0.258071      0.265477
Fe           -0.349968      0.089057     -0.491148
H            -0.032805      0.063184     -0.445454
H            -0.413275      0.270073      0.285636
H             0.068119      0.247187      0.438532
H             0.402013      0.083442     -0.315021
O            -0.198233      0.098193      0.411251
O            -0.315588      0.257084     -0.362750
O             0.189511      0.256036     -0.409984
O             0.302202      0.069341      0.346429
O            -0.030976      0.073137     -0.342488
O            -0.448362      0.240471      0.379841
O             0.044464      0.232807      0.336726
O             0.436868      0.087330     -0.414381
Fe            0.141619      0.410568     -0.271879
Cu            0.343563     -0.431290      0.470873
Fe           -0.136997     -0.416080      0.293244
Fe           -0.379664      0.425767     -0.479607
H            -0.110482      0.398100     -0.463918
H            -0.387342     -0.426964      0.298341
H             0.061904     -0.445228      0.474744
H             0.397593      0.392318     -0.306002
O            -0.207851      0.415107      0.397564
O            -0.304221     -0.420470     -0.348551
O             0.174230     -0.426968     -0.392471
O             0.311177      0.399181      0.343647
O            -0.065230      0.392441     -0.369618
O            -0.443341     -0.417226      0.386263
O             0.042833     -0.438651      0.369062
O             0.427794      0.395079     -0.406809
H            -0.466866     -0.139979      0.288408
H             0.039995     -0.221837      0.126450
H             0.232951     -0.325492      0.137636
data_nwchem_pspw

_audit_creation_date   Wed Nov 22 23:58:37 2023
_audit_creation_method    generated by PSPW module of NWChem


_cell_length_a            10.0667
_cell_length_b             9.1552
_cell_length_c             9.2041
_cell_angle_alpha         90.0000
_cell_angle_beta          90.0000
_cell_angle_gamma         90.0000

_symmetry_space_group_name_H-M     P1  

loop_
_atom_site_type_symbol
_atom_site_fract_x
_atom_site_fract_y
_atom_site_fract_z
H             0.212742     -0.230989      0.352022
Fe            0.327335     -0.084901     -0.032969
Fe           -0.151955     -0.069158     -0.219693
Fe           -0.365385     -0.275620      0.044245
H            -0.132740     -0.244652      0.004581
H            -0.410579     -0.099516     -0.192858
H             0.082277     -0.075567     -0.041011
H             0.409664     -0.247569      0.196224
O            -0.200604     -0.248853     -0.077182
O            -0.315927     -0.101807      0.166675
O             0.172530     -0.078449      0.083739
O             0.300755     -0.244346     -0.167266
O            -0.057524     -0.250251      0.146301
O            -0.438953     -0.102405     -0.093740
O             0.045640     -0.091618     -0.142779
O             0.438917     -0.236538      0.096392
Fe            0.143594      0.070896      0.225695
Fe            0.354938      0.242704     -0.034456
Fe           -0.153394      0.251339     -0.230319
Fe           -0.358396      0.066051      0.020224
H            -0.091064      0.103223      0.050254
H            -0.402404      0.253601     -0.213282
H             0.090169      0.230615     -0.053665
H             0.395388      0.075744      0.193288
O            -0.211034      0.083787     -0.098242
O            -0.303181      0.234291      0.151620
O             0.190494      0.244985      0.092246
O             0.299620      0.080319     -0.171427
O            -0.052957      0.091131      0.147358
O            -0.440557      0.240148     -0.115431
O             0.052713      0.250033     -0.150703
O             0.437006      0.088081      0.097528
Fe            0.141919      0.401445      0.224874
Fe            0.356671     -0.412455     -0.047231
Fe           -0.137051     -0.418910     -0.237226
Fe           -0.353125      0.405466      0.018686
H            -0.069670      0.420583      0.025546
H            -0.421812     -0.408697     -0.210628
H             0.063842     -0.444586     -0.047461
H             0.424079      0.395891      0.193613
O            -0.198285      0.416950     -0.098969
O            -0.301161     -0.425015      0.161913
O             0.206639     -0.415328      0.099390
O             0.303072      0.414237     -0.158049
O            -0.042812      0.405498      0.125327
O            -0.459171     -0.423318     -0.113811
O             0.045646     -0.423567     -0.146089
O             0.456668      0.412296      0.097593
Fe            0.149132     -0.246233     -0.290466
Fe            0.358857     -0.077615      0.491811
Fe           -0.123236     -0.079570      0.292429
Fe           -0.338500     -0.254530     -0.451799
H            -0.083708     -0.241095     -0.444227
H            -0.390689     -0.099028      0.232030
H             0.082706     -0.031743      0.445828
H             0.437578     -0.243095     -0.300021
O            -0.199699     -0.251432      0.413844
O            -0.296086     -0.077035     -0.348468
O             0.199084     -0.083217     -0.392015
O             0.308781     -0.241888      0.348550
O            -0.063034     -0.242125     -0.340164
O            -0.456830     -0.049187      0.381095
O             0.061575     -0.079360      0.356799
O             0.467360     -0.235222     -0.399678
Fe            0.134601      0.082416     -0.268455
Fe            0.346183      0.261171      0.476827
Fe           -0.148179      0.251036      0.277263
Fe           -0.358294      0.085256     -0.469416
H            -0.087432      0.101573     -0.449660
H            -0.430293      0.273409      0.310823
H             0.070730      0.248723      0.456851
H             0.415991      0.111817     -0.295188
O            -0.210634      0.075081      0.401727
O            -0.303598      0.266073     -0.344576
O             0.203138      0.258786     -0.399931
O             0.312231      0.086055      0.343211
O            -0.060501      0.090828     -0.350122
O            -0.455322      0.263450      0.412097
O             0.031666      0.237220      0.361016
O             0.452977      0.108732     -0.392873
Fe            0.149934      0.427471     -0.269391
Cu            0.367574     -0.410826      0.483305
Fe           -0.132631     -0.415009      0.269499
Fe           -0.352105      0.429057     -0.487360
H            -0.060619      0.421072     -0.452796
H            -0.393578     -0.424674      0.290171
H             0.084233     -0.427347      0.443211
H             0.416574      0.448006     -0.298721
O            -0.184978      0.419158      0.398046
O            -0.291915     -0.424322     -0.339186
O             0.198372     -0.421822     -0.399169
O             0.282176      0.407080      0.349071
O            -0.048130      0.418795     -0.348830
O            -0.436770     -0.419222      0.387167
O             0.056263     -0.426097      0.342324
O             0.459936      0.451043     -0.393354
H             0.481645      0.021261      0.342636
H             0.036543     -0.235410      0.131205
H             0.236471     -0.368881      0.187008
data_nwchem_pspw

_audit_creation_date   Thu Nov 23 02:01:29 2023
_audit_creation_method    generated by PSPW module of NWChem


_cell_length_a            10.0667
_cell_length_b             9.1552
_cell_length_c             9.2041
_cell_angle_alpha         90.0000
_cell_angle_beta          90.0000
_cell_angle_gamma         90.0000

_symmetry_space_group_name_H-M     P1  

loop_
_atom_site_type_symbol
_atom_site_fract_x
_atom_site_fract_y
_atom_site_fract_z
H             0.199844     -0.251634      0.339283
Fe            0.345777     -0.064408     -0.020895
Fe           -0.139060     -0.076549     -0.236717
Fe           -0.369287     -0.260675      0.026418
H            -0.135587     -0.231243     -0.021571
H            -0.423910     -0.125620     -0.204326
H             0.078335     -0.100616     -0.063125
H             0.378187     -0.260759      0.201564
O            -0.193827     -0.243914     -0.104057
O            -0.296399     -0.090711      0.166464
O             0.185175     -0.092072      0.086640
O             0.292335     -0.244814     -0.145125
O            -0.063939     -0.236201      0.141119
O            -0.453889     -0.119189     -0.104640
O             0.049080     -0.087744     -0.160674
O             0.433160     -0.244900      0.112362
Fe            0.139729      0.074302      0.214208
Fe            0.352146      0.255971     -0.020070
Fe           -0.150845      0.255008     -0.222408
Fe           -0.365192      0.081330      0.021566
H            -0.093264      0.079883      0.042266
H            -0.409028      0.248108     -0.198087
H             0.064554      0.266239     -0.043626
H             0.415350      0.084016      0.202757
O            -0.206612      0.086229     -0.094955
O            -0.303151      0.233480      0.153428
O             0.186805      0.252305      0.090183
O             0.297346      0.096805     -0.150212
O            -0.059901      0.088295      0.144103
O            -0.443905      0.245125     -0.098126
O             0.041099      0.253086     -0.145627
O             0.439511      0.098429      0.100554
Fe            0.143089      0.411724      0.226943
Fe            0.348310     -0.407948     -0.023024
Fe           -0.143198     -0.423428     -0.242554
Fe           -0.349042      0.413921      0.025511
H            -0.094118      0.429938      0.051780
H            -0.401513     -0.433282     -0.195578
H             0.064432     -0.401433     -0.046778
H             0.416511      0.434596      0.203292
O            -0.203239      0.410093     -0.103885
O            -0.284137     -0.419748      0.144958
O             0.188819     -0.411326      0.095813
O             0.312153      0.423521     -0.152185
O            -0.050414      0.430998      0.145037
O            -0.447462     -0.426051     -0.102513
O             0.052562     -0.408112     -0.150622
O             0.449364      0.431687      0.104030
Fe            0.151692     -0.255348     -0.279035
Fe            0.338340     -0.079046      0.485332
Fe           -0.124554     -0.073145      0.300062
Fe           -0.336715     -0.258201     -0.478467
H            -0.075072     -0.291546     -0.462855
H            -0.363694     -0.085862      0.241413
H             0.090938     -0.050166      0.460673
H             0.427689     -0.268687     -0.322319
O            -0.194487     -0.250935      0.403360
O            -0.309403     -0.089596     -0.347174
O             0.199910     -0.076328     -0.390348
O             0.294966     -0.244782      0.351888
O            -0.054279     -0.254769     -0.369094
O            -0.455455     -0.112719      0.387444
O             0.057067     -0.076373      0.366006
O             0.457226     -0.243011     -0.416256
Fe            0.144931      0.092591     -0.270606
Fe            0.351493      0.243867      0.478009
Fe           -0.140000      0.243725      0.278149
Fe           -0.361004      0.086202     -0.458442
H            -0.078476      0.082067     -0.457204
H            -0.410038      0.210396      0.302657
H             0.070893      0.299221      0.447207
H             0.393808      0.088697     -0.297648
O            -0.215187      0.091459      0.399838
O            -0.307402      0.246863     -0.338015
O             0.190373      0.253610     -0.385330
O             0.287343      0.082434      0.349116
O            -0.066032      0.089303     -0.353927
O            -0.448377      0.231707      0.396682
O             0.052161      0.260959      0.352039
O             0.431995      0.084351     -0.392961
Fe            0.153927      0.425175     -0.269982
Cu            0.361698     -0.419191      0.468605
Fe           -0.120205     -0.419003      0.273017
Fe           -0.351691      0.413486     -0.476314
H            -0.078451      0.421638     -0.459361
H            -0.378049     -0.433929      0.289468
H             0.098910     -0.408806      0.455796
H             0.426461      0.431093     -0.305032
O            -0.191399      0.413779      0.398303
O            -0.307717     -0.416443     -0.349893
O             0.198168     -0.420514     -0.411623
O             0.307219      0.406686      0.350411
O            -0.058561      0.418523     -0.356597
O            -0.423238     -0.447403      0.382046
O             0.069546     -0.399336      0.352573
O             0.454591      0.409010     -0.402474
H            -0.493458     -0.193771      0.337440
H             0.028071     -0.208627      0.141980
H             0.168229     -0.322676      0.144234
data_nwchem_pspw

_audit_creation_date   Thu Nov 23 03:59:06 2023
_audit_creation_method    generated by PSPW module of NWChem


_cell_length_a            10.0667
_cell_length_b             9.1552
_cell_length_c             9.2041
_cell_angle_alpha         90.0000
_cell_angle_beta          90.0000
_cell_angle_gamma         90.0000

_symmetry_space_group_name_H-M     P1  

loop_
_atom_site_type_symbol
_atom_site_fract_x
_atom_site_fract_y
_atom_site_fract_z
H             0.193411     -0.259669      0.352988
Fe            0.367615     -0.087526     -0.024264
Fe           -0.147164     -0.078097     -0.229837
Fe           -0.340401     -0.267232      0.007622
H            -0.104687     -0.262871      0.035787
H            -0.409256     -0.082911     -0.203325
H             0.086806     -0.078453     -0.041700
H             0.461373     -0.259838      0.201765
O            -0.190718     -0.259162     -0.101543
O            -0.282058     -0.084452      0.142600
O             0.205285     -0.075691      0.074712
O             0.306827     -0.251675     -0.140937
O            -0.057496     -0.250811      0.133178
O            -0.441303     -0.087016     -0.104482
O             0.047641     -0.082413     -0.140403
O             0.459379     -0.244581      0.098497
Fe            0.157100      0.076879      0.213628
Fe            0.332932      0.260135     -0.024847
Fe           -0.148995      0.265589     -0.224201
Fe           -0.359596      0.095615      0.007641
H            -0.087128      0.088850      0.050011
H            -0.405304      0.252037     -0.211350
H             0.050933      0.260407     -0.032851
H             0.430466      0.081691      0.194115
O            -0.203432      0.086357     -0.099600
O            -0.284728      0.254799      0.139580
O             0.194791      0.238391      0.110827
O             0.307674      0.094965     -0.155299
O            -0.051306      0.076364      0.146807
O            -0.449563      0.240771     -0.120370
O             0.041612      0.244794     -0.136444
O             0.458974      0.092963      0.094210
Fe            0.137182      0.416379      0.246634
Fe            0.354880     -0.411049     -0.021498
Fe           -0.140717     -0.420072     -0.249507
Fe           -0.365619      0.407319      0.029093
H            -0.107841      0.415185      0.049543
H            -0.393397     -0.440489     -0.192269
H             0.034045     -0.445025     -0.047413
H             0.403644      0.417681      0.211087
O            -0.207125      0.440071     -0.108764
O            -0.292567     -0.421636      0.146508
O             0.199610     -0.415732      0.109031
O             0.273216      0.432271     -0.131904
O            -0.050671      0.409178      0.134614
O            -0.447103     -0.418868     -0.107995
O             0.038481     -0.419988     -0.147814
O             0.443043      0.406537      0.114509
Fe            0.145570     -0.255664     -0.252195
Fe            0.353961     -0.081812     -0.495679
Fe           -0.125389     -0.083327      0.278296
Fe           -0.362886     -0.244582     -0.484091
H            -0.078648     -0.243992     -0.456418
H            -0.351807     -0.066810      0.213682
H             0.083316     -0.086786      0.438347
H             0.416135     -0.244034     -0.292344
O            -0.198707     -0.237930      0.413111
O            -0.295960     -0.068301     -0.350440
O             0.184006     -0.084009     -0.390450
O             0.285035     -0.243531      0.373523
O            -0.054291     -0.238392     -0.355695
O            -0.443322     -0.086141      0.365875
O             0.058418     -0.086163      0.336819
O             0.457984     -0.227981     -0.386486
Fe            0.145520      0.085396     -0.258505
Fe            0.339784      0.231998      0.471714
Fe           -0.141480      0.243952      0.275657
Fe           -0.339104      0.099522     -0.468194
H            -0.033664      0.066720     -0.453386
H            -0.402690      0.240236      0.304735
H             0.054579      0.245288      0.466300
H             0.408967      0.101360     -0.301880
O            -0.196530      0.074492      0.397716
O            -0.290170      0.266479     -0.348885
O             0.201282      0.244152     -0.390990
O             0.301946      0.072068      0.357496
O            -0.037663      0.092870     -0.353692
O            -0.435868      0.250826      0.402717
O             0.041894      0.241839      0.360496
O             0.451818      0.092839     -0.396678
Fe            0.136286      0.409519     -0.270521
Cu            0.349907     -0.423357      0.472787
Fe           -0.136544     -0.419028      0.275469
Fe           -0.364092      0.418123     -0.478606
H            -0.091927      0.402825     -0.459241
H            -0.410594     -0.425748      0.288117
H             0.087778     -0.410237      0.452380
H             0.394414      0.428578     -0.325711
O            -0.193898      0.416556      0.391278
O            -0.304695     -0.407972     -0.354363
O             0.185213     -0.422617     -0.385418
O             0.296444      0.401328      0.350296
O            -0.060520      0.422615     -0.360064
O            -0.449664     -0.410201      0.383069
O             0.044324     -0.425221      0.356980
O             0.430897      0.403335     -0.417690
H             0.490071     -0.024257      0.326745
H             0.034753     -0.229484      0.111319
H             0.203797     -0.329000      0.166753
data_nwchem_pspw

_audit_creation_date   Thu Nov 23 06:04:54 2023
_audit_creation_method    generated by PSPW module of NWChem


_cell_length_a            10.0667
_cell_length_b             9.1552
_cell_length_c             9.2041
_cell_angle_alpha         90.0000
_cell_angle_beta          90.0000
_cell_angle_gamma         90.0000

_symmetry_space_group_name_H-M     P1  

loop_
_atom_site_type_symbol
_atom_site_fract_x
_atom_site_fract_y
_atom_site_fract_z
H             0.201363     -0.265546      0.368655
Fe            0.354028     -0.088840     -0.021661
Fe           -0.137890     -0.078747     -0.215533
Fe           -0.361483     -0.256090      0.017912
H            -0.107674     -0.248765      0.033660
H            -0.403478     -0.084225     -0.215323
H             0.112862     -0.061944     -0.048347
H             0.428806     -0.262938      0.209818
O            -0.189418     -0.255563     -0.085041
O            -0.302947     -0.083497      0.154883
O             0.198453     -0.088998      0.090869
O             0.308411     -0.246133     -0.144911
O            -0.053467     -0.252476      0.133675
O            -0.452419     -0.088509     -0.122507
O             0.055360     -0.065124     -0.135629
O             0.455090     -0.240926      0.112270
Fe            0.166206      0.072118      0.222592
Fe            0.339145      0.235154     -0.032863
Fe           -0.153393      0.255929     -0.231648
Fe           -0.366419      0.086259      0.007208
H            -0.110449      0.091941      0.040456
H            -0.439009      0.254501     -0.204607
H             0.036404      0.238624     -0.043862
H             0.405906      0.106522      0.188706
O            -0.208722      0.091471     -0.105516
O            -0.285427      0.237293      0.133866
O             0.206902      0.245935      0.113179
O             0.288475      0.084478     -0.161401
O            -0.067006      0.083573      0.134058
O            -0.463692      0.252206     -0.104070
O             0.039262      0.259502     -0.143958
O             0.444820      0.075824      0.095726
Fe            0.146045      0.412254      0.229121
Fe            0.359606     -0.440753     -0.040659
Fe           -0.144731     -0.420588     -0.231776
Fe           -0.340400      0.415701      0.033646
H            -0.074662      0.421710      0.054985
H            -0.408443     -0.413594     -0.209280
H             0.056807     -0.412780     -0.055893
H             0.435391      0.416620      0.204643
O            -0.194568      0.424121     -0.098630
O            -0.289420     -0.419284      0.152696
O             0.208267     -0.417891      0.090352
O             0.289390      0.412568     -0.164706
O            -0.054477      0.435232      0.156012
O            -0.442928     -0.436580     -0.110851
O             0.053668     -0.409408     -0.159906
O             0.454189      0.406654      0.103125
Fe            0.156796     -0.247655     -0.273366
Fe            0.357165     -0.096427      0.493849
Fe           -0.128566     -0.063654      0.292175
Fe           -0.352394     -0.242792     -0.477633
H            -0.062241     -0.244534     -0.444763
H            -0.361473     -0.090105      0.241861
H             0.098529     -0.048499      0.441767
H             0.437926     -0.217510     -0.276023
O            -0.198683     -0.213639      0.403099
O            -0.287694     -0.075106     -0.346364
O             0.206820     -0.079208     -0.388390
O             0.296363     -0.260578      0.356757
O            -0.041821     -0.246337     -0.342680
O            -0.455709     -0.069970      0.376898
O             0.065640     -0.075115      0.346717
O             0.467881     -0.220111     -0.375882
Fe            0.134307      0.103318     -0.285760
Fe            0.344290      0.248421      0.466167
Fe           -0.149434      0.252499      0.271740
Fe           -0.358605      0.083738     -0.458766
H            -0.086174      0.081193     -0.450020
H            -0.432781      0.262179      0.304699
H             0.058885      0.247186      0.435824
H             0.393251      0.096125     -0.305976
O            -0.198373      0.090645      0.409863
O            -0.304017      0.252708     -0.337849
O             0.176142      0.259255     -0.423199
O             0.299909      0.075794      0.356627
O            -0.056471      0.100476     -0.350798
O            -0.457027      0.251566      0.402760
O             0.035560      0.239600      0.333694
O             0.442901      0.101405     -0.396816
Fe            0.145410      0.422674     -0.291571
Cu            0.367285     -0.427551      0.485820
Fe           -0.150097     -0.417505      0.289117
Fe           -0.363755      0.420723     -0.460092
H            -0.092163      0.407076     -0.450834
H            -0.416024     -0.413901      0.290998
H             0.079006     -0.445358      0.465028
H             0.400914      0.401840     -0.303889
O            -0.223743      0.411328      0.410225
O            -0.306050     -0.411775     -0.337717
O             0.199844     -0.409434     -0.409579
O             0.306836      0.391007      0.335754
O            -0.060418      0.414657     -0.350809
O            -0.439226     -0.409207      0.392220
O             0.033907     -0.462207      0.373518
O             0.441443      0.405106     -0.400144
H            -0.481792      0.016190      0.323990
H             0.037354     -0.233774      0.110083
H             0.224833     -0.330430      0.146149
data_nwchem_pspw

_audit_creation_date   Thu Nov 23 08:02:28 2023
_audit_creation_method    generated by PSPW module of NWChem


_cell_length_a            10.0667
_cell_length_b             9.1552
_cell_length_c             9.2041
_cell_angle_alpha         90.0000
_cell_angle_beta          90.0000
_cell_angle_gamma         90.0000

_symmetry_space_group_name_H-M     P1  

loop_
_atom_site_type_symbol
_atom_site_fract_x
_atom_site_fract_y
_atom_site_fract_z
H             0.212223     -0.230443      0.329961
Fe            0.350825     -0.103535     -0.019228
Fe           -0.164103     -0.089392     -0.225297
Fe           -0.342256     -0.265094      0.022811
H            -0.073567     -0.255945      0.035133
H            -0.436965     -0.067780     -0.182873
H             0.073749     -0.075321     -0.042561
H             0.421538     -0.255536      0.207461
O            -0.189853     -0.265847     -0.108352
O            -0.302310     -0.096806      0.161263
O             0.198113     -0.088597      0.096579
O             0.315453     -0.251029     -0.164125
O            -0.042088     -0.240463      0.132255
O            -0.448001     -0.092607     -0.082248
O             0.050673     -0.085915     -0.144671
O             0.460466     -0.257028      0.111606
Fe            0.135135      0.072389      0.211589
Fe            0.353040      0.261961     -0.017562
Fe           -0.149063      0.243925     -0.216681
Fe           -0.376462      0.086012      0.030635
H            -0.121082      0.107345      0.049804
H            -0.432588      0.257923     -0.193592
H             0.080603      0.225784     -0.049485
H             0.383262      0.088281      0.200829
O            -0.214183      0.074969     -0.086910
O            -0.312199      0.264854      0.156014
O             0.193758      0.269712      0.091715
O             0.297550      0.086234     -0.158452
O            -0.064053      0.075161      0.128875
O            -0.452505      0.250149     -0.090979
O             0.052329      0.261217     -0.141581
O             0.438043      0.084320      0.111359
Fe            0.152220      0.424518      0.221106
Fe            0.379148     -0.410193     -0.036919
Fe           -0.146878     -0.440726     -0.227164
Fe           -0.349239      0.427992      0.042737
H            -0.084253      0.439224      0.050157
H            -0.400876     -0.415101     -0.208484
H             0.087023     -0.435997     -0.052184
H             0.406356      0.419526      0.198426
O            -0.200320      0.415441     -0.084180
O            -0.282784     -0.406931      0.161628
O             0.214705     -0.408257      0.080551
O             0.310180      0.421436     -0.157453
O            -0.051276      0.440733      0.150013
O            -0.432409     -0.415547     -0.108045
O             0.049056     -0.403770     -0.143243
O             0.452172      0.428298      0.103792
Fe            0.145057     -0.236058     -0.274352
Fe            0.348645     -0.081286      0.487278
Fe           -0.138797     -0.062285      0.293578
Fe           -0.336635     -0.260635     -0.476887
H            -0.051012     -0.271924     -0.458009
H            -0.357792     -0.132467      0.239631
H             0.091226     -0.075332      0.434716
H             0.422949     -0.274190     -0.320716
O            -0.193457     -0.240861      0.389337
O            -0.312038     -0.083934     -0.352823
O             0.190830     -0.079982     -0.403705
O             0.306092     -0.241953      0.343643
O            -0.049472     -0.249228     -0.357366
O            -0.453056     -0.080554      0.400270
O             0.050865     -0.080735      0.339554
O             0.448443     -0.243951     -0.418309
Fe            0.140900      0.086987     -0.273095
Fe            0.344407      0.242551      0.469695
Fe           -0.142805      0.260931      0.277169
Fe           -0.371230      0.078541     -0.461270
H            -0.116359      0.080906     -0.443817
H            -0.412995      0.240095      0.305713
H             0.083882      0.244163      0.450083
H             0.383988      0.086211     -0.291617
O            -0.211735      0.094670      0.406567
O            -0.311158      0.246639     -0.343571
O             0.188321      0.255522     -0.406333
O             0.284066      0.067617      0.338235
O            -0.071311      0.080671     -0.349642
O            -0.457860      0.226569      0.399066
O             0.050496      0.251878      0.350470
O             0.432886      0.085792     -0.392940
Fe            0.153907      0.430690     -0.285432
Cu            0.365174     -0.416083      0.472248
Fe           -0.124666     -0.411728      0.272721
Fe           -0.363767      0.401262     -0.489036
H            -0.072794      0.401435     -0.454785
H            -0.396256     -0.415547      0.300636
H             0.106901     -0.410844      0.443849
H             0.411681      0.406067     -0.311898
O            -0.204767      0.426368      0.401101
O            -0.303492     -0.437766     -0.340115
O             0.191691     -0.399794     -0.402702
O             0.305841      0.399085      0.349812
O            -0.051307      0.405835     -0.352208
O            -0.442733     -0.411290      0.393690
O             0.064243     -0.415563      0.346520
O             0.445494      0.398752     -0.410367
H            -0.474822     -0.031859      0.311568
H             0.042906     -0.190552      0.131416
H             0.213208     -0.327283      0.146547
data_nwchem_pspw

_audit_creation_date   Thu Nov 23 09:58:35 2023
_audit_creation_method    generated by PSPW module of NWChem


_cell_length_a            10.0667
_cell_length_b             9.1552
_cell_length_c             9.2041
_cell_angle_alpha         90.0000
_cell_angle_beta          90.0000
_cell_angle_gamma         90.0000

_symmetry_space_group_name_H-M     P1  

loop_
_atom_site_type_symbol
_atom_site_fract_x
_atom_site_fract_y
_atom_site_fract_z
H             0.207451     -0.197684      0.366436
Fe            0.342001     -0.080474     -0.026043
Fe           -0.143901     -0.092468     -0.235466
Fe           -0.351506     -0.256276      0.012490
H            -0.073970     -0.252019      0.035008
H            -0.435055     -0.084479     -0.205517
H             0.091532     -0.086084     -0.061503
H             0.390012     -0.259148      0.203929
O            -0.193754     -0.257496     -0.096268
O            -0.299606     -0.088741      0.153464
O             0.182793     -0.088236      0.086350
O             0.298208     -0.264585     -0.146323
O            -0.031853     -0.251449      0.133875
O            -0.454031     -0.082605     -0.101802
O             0.049785     -0.077802     -0.157369
O             0.430376     -0.239375      0.109563
Fe            0.158791      0.052086      0.221159
Fe            0.356194      0.266152     -0.013412
Fe           -0.167657      0.253180     -0.224702
Fe           -0.362202      0.091393      0.013193
H            -0.079632      0.060647      0.052073
H            -0.419621      0.246328     -0.220320
H             0.060546      0.262582     -0.055687
H             0.397933      0.099818      0.208340
O            -0.196983      0.072073     -0.091046
O            -0.314134      0.244607      0.155173
O             0.211970      0.233653      0.115463
O             0.305694      0.086066     -0.150887
O            -0.045179      0.068491      0.150936
O            -0.444545      0.252320     -0.118784
O             0.035451      0.254653     -0.156656
O             0.439432      0.107534      0.110894
Fe            0.147482      0.379987      0.254650
Fe            0.354891     -0.411059     -0.019968
Fe           -0.140855     -0.419899     -0.234493
Fe           -0.346148      0.417577      0.041808
H            -0.047863      0.422844      0.046021
H            -0.412050     -0.451949     -0.203222
H             0.089359     -0.422497     -0.047163
H             0.436199      0.427764      0.206880
O            -0.195564      0.424242     -0.100919
O            -0.290889     -0.415091      0.150051
O             0.197792     -0.446820      0.102996
O             0.300894      0.411359     -0.160671
O            -0.041619      0.395010      0.144590
O            -0.439491     -0.410413     -0.112448
O             0.060462     -0.419601     -0.147501
O             0.460449      0.426150      0.100405
Fe            0.151838     -0.237697     -0.288162
Fe            0.364152     -0.080600      0.498913
Fe           -0.131176     -0.085085      0.282871
Fe           -0.355927     -0.253970     -0.486573
H            -0.105353     -0.253725     -0.457808
H            -0.354904     -0.095844      0.240407
H             0.088672     -0.064103      0.464948
H             0.475957     -0.228174     -0.272209
O            -0.200613     -0.244911      0.389094
O            -0.300993     -0.087581     -0.355727
O             0.208403     -0.082975     -0.394638
O             0.297158     -0.238497      0.368360
O            -0.066360     -0.252316     -0.361101
O            -0.445491     -0.078179      0.395820
O             0.063660     -0.090789      0.367576
O             0.469219     -0.240215     -0.374973
Fe            0.146080      0.092642     -0.258627
Fe            0.342579      0.262476      0.467311
Fe           -0.157265      0.238629      0.270474
Fe           -0.351658      0.090640     -0.479039
H            -0.082481      0.079721     -0.443629
H            -0.433471      0.220312      0.300564
H             0.058171      0.242370      0.461545
H             0.412075      0.105752     -0.299952
O            -0.208096      0.076257      0.406161
O            -0.308212      0.259928     -0.357995
O             0.167935      0.246038     -0.412021
O             0.321585      0.078878      0.352903
O            -0.064915      0.089208     -0.340740
O            -0.456619      0.249831      0.398111
O             0.029461      0.228605      0.359619
O             0.453731      0.105780     -0.396853
Fe            0.134602      0.415522     -0.272763
Cu            0.350137     -0.401255      0.488208
Fe           -0.125362     -0.419135      0.287091
Fe           -0.368956      0.436465      0.497418
H            -0.072306      0.431824     -0.457716
H            -0.404605     -0.404556      0.270339
H             0.106514     -0.416739      0.452680
H             0.407486      0.422566     -0.310576
O            -0.200568      0.424299      0.394845
O            -0.295164     -0.416248     -0.368464
O             0.181714     -0.414254     -0.394574
O             0.318849      0.418311      0.336063
O            -0.045134      0.415806     -0.358242
O            -0.449797     -0.398983      0.366405
O             0.065964     -0.445434      0.357748
O             0.431723      0.424920     -0.413730
H            -0.496439     -0.072762      0.309598
H             0.057579     -0.209445      0.128415
H             0.194851     -0.373595      0.177628
data_nwchem_pspw

_audit_creation_date   Thu Nov 23 11:54:58 2023
_audit_creation_method    generated by PSPW module of NWChem


_cell_length_a            10.0667
_cell_length_b             9.1552
_cell_length_c             9.2041
_cell_angle_alpha         90.0000
_cell_angle_beta          90.0000
_cell_angle_gamma         90.0000

_symmetry_space_group_name_H-M     P1  

loop_
_atom_site_type_symbol
_atom_site_fract_x
_atom_site_fract_y
_atom_site_fract_z
H             0.203355     -0.246517      0.346259
Fe            0.351500     -0.084854     -0.026473
Fe           -0.146519     -0.083804     -0.213438
Fe           -0.358372     -0.257868      0.013364
H            -0.090317     -0.226235      0.036087
H            -0.405098     -0.080033     -0.214639
H             0.103971     -0.100392     -0.055721
H             0.377517     -0.260244      0.182106
O            -0.188321     -0.251858     -0.083059
O            -0.307438     -0.083498      0.160504
O             0.192884     -0.091685      0.088745
O             0.299948     -0.256089     -0.147290
O            -0.030605     -0.232237      0.125638
O            -0.437856     -0.095486     -0.111054
O             0.056461     -0.096933     -0.148790
O             0.437743     -0.254672      0.096741
Fe            0.147451      0.063982      0.228627
Fe            0.341482      0.249158     -0.029883
Fe           -0.157651      0.244271     -0.223932
Fe           -0.378310      0.079409      0.017618
H            -0.109568      0.085431      0.060861
H            -0.417602      0.263770     -0.197376
H             0.073977      0.230162     -0.045146
H             0.407617      0.080696      0.197424
O            -0.202317      0.094482     -0.080260
O            -0.308822      0.247529      0.159933
O             0.195375      0.254971      0.097723
O             0.303204      0.086777     -0.156232
O            -0.069218      0.092421      0.158440
O            -0.451202      0.245887     -0.099798
O             0.053281      0.241474     -0.146470
O             0.435205      0.064691      0.095915
Fe            0.153825      0.418457      0.223509
Fe            0.372188     -0.413089     -0.030640
Fe           -0.143162     -0.434548     -0.237374
Fe           -0.346790      0.412531      0.041487
H            -0.065933      0.429977      0.038785
H            -0.393280     -0.423389     -0.190021
H             0.089070     -0.388440     -0.045791
H             0.406458      0.419343      0.200099
O            -0.198467      0.429934     -0.094238
O            -0.291328     -0.407444      0.153945
O             0.218193     -0.411447      0.099232
O             0.304110      0.417285     -0.150113
O            -0.052615      0.442059      0.141249
O            -0.432941     -0.429226     -0.090841
O             0.056853     -0.402594     -0.143110
O             0.453256      0.411612      0.104930
Fe            0.146389     -0.253932     -0.279478
Fe            0.353516     -0.078161      0.481018
Fe           -0.140860     -0.082688      0.278788
Fe           -0.344158     -0.249990     -0.477416
H            -0.099835     -0.237702     -0.440858
H            -0.370184     -0.076633      0.242230
H             0.078478     -0.077791      0.463314
H             0.467069     -0.230872     -0.294709
O            -0.194530     -0.250403      0.395139
O            -0.305061     -0.083690     -0.350554
O             0.195269     -0.072530     -0.410027
O             0.297889     -0.245720      0.339314
O            -0.062766     -0.253954     -0.345520
O            -0.464503     -0.105094      0.376388
O             0.032696     -0.058064      0.372830
O             0.468023     -0.250210     -0.394898
Fe            0.136293      0.083486     -0.280325
Fe            0.344998      0.254031      0.476667
Fe           -0.148059      0.256034      0.272086
Fe           -0.349496      0.094128     -0.464510
H            -0.106797      0.066156     -0.451307
H            -0.407922      0.261760      0.298804
H             0.061027      0.262422      0.463203
H             0.414396      0.091312     -0.296417
O            -0.215141      0.093148      0.403224
O            -0.305531      0.255762     -0.339556
O             0.187927      0.256937     -0.394620
O             0.302751      0.090005      0.338274
O            -0.063276      0.066412     -0.355757
O            -0.449479      0.251913      0.396384
O             0.057411      0.253650      0.358797
O             0.452646      0.100040     -0.394448
Fe            0.152724      0.423065     -0.272804
Cu            0.365227     -0.410271      0.490562
Fe           -0.138815     -0.408159      0.271469
Fe           -0.358334      0.414828     -0.483785
H            -0.102001      0.431109     -0.447371
H            -0.425409     -0.404861      0.294342
H             0.074220     -0.395915      0.447875
H             0.443186      0.416192     -0.289201
O            -0.198280      0.417688      0.396601
O            -0.313451     -0.421946     -0.348899
O             0.184530     -0.417268     -0.413624
O             0.310967      0.415197      0.348270
O            -0.057311      0.412676     -0.354909
O            -0.437452     -0.407900      0.397869
O             0.047796     -0.421844      0.351189
O             0.457220      0.396861     -0.390615
H            -0.492678     -0.169480      0.299836
H             0.058727     -0.189339      0.115109
H             0.216405     -0.320530      0.149735
data_nwchem_pspw

_audit_creation_date   Thu Nov 23 13:57:46 2023
_audit_creation_method    generated by PSPW module of NWChem


_cell_length_a            10.0667
_cell_length_b             9.1552
_cell_length_c             9.2041
_cell_angle_alpha         90.0000
_cell_angle_beta          90.0000
_cell_angle_gamma         90.0000

_symmetry_space_group_name_H-M     P1  

loop_
_atom_site_type_symbol
_atom_site_fract_x
_atom_site_fract_y
_atom_site_fract_z
H             0.195424     -0.326884      0.361644
Fe            0.349339     -0.084126     -0.021959
Fe           -0.144673     -0.078155     -0.229254
Fe           -0.349588     -0.261687      0.025032
H            -0.081467     -0.225893      0.034419
H            -0.399541     -0.099987     -0.188226
H             0.100509     -0.057268     -0.062803
H             0.419517     -0.290012      0.200913
O            -0.193823     -0.253914     -0.100214
O            -0.309647     -0.100708      0.166666
O             0.170830     -0.065638      0.061290
O             0.315676     -0.242105     -0.151066
O            -0.047125     -0.238772      0.131426
O            -0.440735     -0.086858     -0.093422
O             0.049538     -0.079811     -0.161122
O             0.433519     -0.253045      0.103318
Fe            0.142798      0.080646      0.214685
Fe            0.351808      0.249392     -0.024181
Fe           -0.154775      0.256518     -0.216897
Fe           -0.358459      0.077530      0.017325
H            -0.088201      0.111599      0.056347
H            -0.442207      0.228185     -0.208426
H             0.084273      0.257762     -0.049049
H             0.381599      0.077407      0.196214
O            -0.198535      0.091830     -0.091911
O            -0.311167      0.239506      0.150185
O             0.189033      0.259509      0.088250
O             0.295785      0.088612     -0.145172
O            -0.062275      0.097241      0.155573
O            -0.454001      0.247192     -0.106491
O             0.052596      0.262631     -0.150008
O             0.426021      0.078891      0.100377
Fe            0.142889      0.421327      0.232938
Fe            0.353139     -0.415200     -0.035158
Fe           -0.135675     -0.413903     -0.219023
Fe           -0.348930      0.418600      0.035937
H            -0.072024      0.440272      0.036554
H            -0.398902     -0.435317     -0.203563
H             0.091740     -0.420468     -0.039402
H             0.414426      0.417021      0.206362
O            -0.191484      0.417273     -0.077896
O            -0.278794     -0.407624      0.150993
O             0.202035     -0.409813      0.098466
O             0.299610      0.413735     -0.160654
O            -0.043762      0.432997      0.138398
O            -0.439832     -0.430095     -0.107282
O             0.057220     -0.399272     -0.136943
O             0.447538      0.428560      0.106000
Fe            0.156905     -0.246933     -0.262932
Fe            0.335834     -0.099841      0.465127
Fe           -0.146950     -0.066721      0.296131
Fe           -0.345937     -0.264221     -0.465881
H            -0.053607     -0.262560     -0.450971
H            -0.373368     -0.112621      0.250425
H             0.080070     -0.079540      0.446490
H             0.419278     -0.275955     -0.306974
O            -0.201435     -0.245782      0.410686
O            -0.305058     -0.087531     -0.340808
O             0.184019     -0.082961     -0.406462
O             0.282290     -0.280409      0.357501
O            -0.039801     -0.256154     -0.348386
O            -0.458974     -0.080754      0.389106
O             0.040049     -0.075981      0.348830
O             0.450093     -0.257724     -0.404700
Fe            0.143488      0.096361     -0.279745
Fe            0.346040      0.237527      0.469012
Fe           -0.149414      0.257063      0.266538
Fe           -0.348999      0.088282     -0.450238
H            -0.075358      0.078183     -0.461776
H            -0.411951      0.242679      0.314281
H             0.071226      0.267886      0.450309
H             0.398229      0.090847     -0.309080
O            -0.206381      0.091371      0.402431
O            -0.313637      0.265567     -0.338631
O             0.194780      0.250572     -0.403147
O             0.300723      0.076229      0.344719
O            -0.060914      0.082309     -0.360198
O            -0.452809      0.223663      0.408163
O             0.053957      0.262011      0.347778
O             0.451380      0.080290     -0.397369
Fe            0.145652      0.425157     -0.282551
Cu            0.370084     -0.438556      0.474423
Fe           -0.136475     -0.412212      0.276643
Fe           -0.354491      0.420459     -0.490802
H            -0.084755      0.422333     -0.444629
H            -0.374028     -0.394415      0.293173
H             0.075285     -0.452088      0.471792
H             0.422689      0.416501     -0.310889
O            -0.207882      0.417954      0.386560
O            -0.290932     -0.427576     -0.346933
O             0.194920     -0.417567     -0.398936
O             0.305265      0.396376      0.333395
O            -0.051066      0.424916     -0.347105
O            -0.429708     -0.401178      0.378522
O             0.056640     -0.433549      0.372534
O             0.458238      0.407518     -0.409542
H            -0.473441      0.020834      0.366180
H             0.043163     -0.211635      0.117680
H             0.198268     -0.308288      0.123090
data_nwchem_pspw

_audit_creation_date   Thu Nov 23 17:15:49 2023
_audit_creation_method    generated by PSPW module of NWChem


_cell_length_a            10.0667
_cell_length_b             9.1552
_cell_length_c             9.2041
_cell_angle_alpha         90.0000
_cell_angle_beta          90.0000
_cell_angle_gamma         90.0000

_symmetry_space_group_name_H-M     P1  

loop_
_atom_site_type_symbol
_atom_site_fract_x
_atom_site_fract_y
_atom_site_fract_z
H             0.233623     -0.214704      0.324535
Fe            0.348000     -0.081883     -0.019149
Fe           -0.146974     -0.085797     -0.241390
Fe           -0.345546     -0.278013      0.007770
H            -0.097997     -0.256469      0.040191
H            -0.410375     -0.096095     -0.200233
H             0.071888     -0.071857     -0.049474
H             0.428620     -0.225001      0.194007
O            -0.185951     -0.258618     -0.111002
O            -0.283431     -0.081732      0.157415
O             0.192260     -0.082628      0.102060
O             0.300927     -0.250246     -0.150614
O            -0.055446     -0.242860      0.134169
O            -0.430027     -0.087905     -0.097638
O             0.052474     -0.076177     -0.151223
O             0.470709     -0.248288      0.101114
Fe            0.155895      0.067257      0.221358
Fe            0.352051      0.269579     -0.012307
Fe           -0.147218      0.251566     -0.239497
Fe           -0.349907      0.071393      0.012327
H            -0.075680      0.066016      0.042712
H            -0.405869      0.247539     -0.203659
H             0.084225      0.225184     -0.052286
H             0.416818      0.102237      0.193497
O            -0.196603      0.089611     -0.105141
O            -0.297934      0.241334      0.138253
O             0.192310      0.265537      0.110509
O             0.296864      0.097956     -0.128576
O            -0.050216      0.079552      0.142683
O            -0.449146      0.240488     -0.110543
O             0.042624      0.263368     -0.139197
O             0.455910      0.093393      0.096669
Fe            0.138108      0.417479      0.238362
Fe            0.369937     -0.414073     -0.033474
Fe           -0.142306     -0.424597     -0.231099
Fe           -0.361107      0.404945      0.016257
H            -0.104375      0.401219      0.052594
H            -0.391999     -0.421785     -0.258734
H             0.066596     -0.440387     -0.044237
H             0.408464      0.417895      0.206482
O            -0.200336      0.423582     -0.096207
O            -0.317863     -0.435190      0.148800
O             0.193961     -0.413497      0.100727
O             0.301724      0.426226     -0.153136
O            -0.065749      0.396907      0.151211
O            -0.449732     -0.415929     -0.116389
O             0.049760     -0.425029     -0.145130
O             0.447246      0.420687      0.105884
Fe            0.139742     -0.256311     -0.268911
Fe            0.351443     -0.073754      0.496361
Fe           -0.115576     -0.082758      0.291506
Fe           -0.350406     -0.237211     -0.480768
H            -0.089544     -0.281703     -0.460188
H            -0.344375     -0.114083      0.231427
H             0.117111     -0.074290      0.467944
H             0.409095     -0.240140     -0.298451
O            -0.196780     -0.248405      0.392356
O            -0.307547     -0.069538     -0.345449
O             0.194621     -0.079496     -0.385394
O             0.324431     -0.232094      0.353795
O            -0.068339     -0.247631     -0.364766
O            -0.461358     -0.068785      0.409068
O             0.070862     -0.088068      0.373426
O             0.452582     -0.228960     -0.393427
Fe            0.149253      0.098976     -0.256335
Fe            0.338014      0.254806      0.477269
Fe           -0.145830      0.232507      0.271208
Fe           -0.359942      0.087342     -0.473839
H            -0.088151      0.076689     -0.449149
H            -0.430383      0.238631      0.286647
H             0.092155      0.239883      0.470111
H             0.421681      0.090690     -0.280684
O            -0.195825      0.077370      0.412695
O            -0.311501      0.256141     -0.359340
O             0.190030      0.249676     -0.389056
O             0.306951      0.082717      0.344386
O            -0.053295      0.088238     -0.349215
O            -0.450959      0.236707      0.389336
O             0.061198      0.223498      0.369605
O             0.432121      0.093125     -0.384318
Fe            0.148219      0.435978     -0.279076
Cu            0.357814     -0.410553      0.473029
Fe           -0.154731     -0.438802      0.284538
Fe           -0.372484      0.424376     -0.491878
H            -0.074049      0.419679     -0.462374
H            -0.409507     -0.418426      0.297077
H             0.090416     -0.409232      0.443246
H             0.398823      0.431955     -0.297102
O            -0.209106      0.406944      0.406460
O            -0.314730     -0.402769     -0.345198
O             0.183338     -0.397774     -0.405157
O             0.307061      0.412752      0.342926
O            -0.051091      0.420573     -0.359942
O            -0.441743     -0.405586      0.396201
O             0.033602     -0.456001      0.373063
O             0.438124      0.426976     -0.394960
H            -0.481308     -0.019505      0.319758
H             0.034225     -0.278858      0.140035
H             0.239960     -0.344595      0.161788
data_nwchem_pspw

_audit_creation_date   Thu Nov 23 18:57:36 2023
_audit_creation_method    generated by PSPW module of NWChem


_cell_length_a            10.0667
_cell_length_b             9.1552
_cell_length_c             9.2041
_cell_angle_alpha         90.0000
_cell_angle_beta          90.0000
_cell_angle_gamma         90.0000

_symmetry_space_group_name_H-M     P1  

loop_
_atom_site_type_symbol
_atom_site_fract_x
_atom_site_fract_y
_atom_site_fract_z
H             0.219721     -0.241799      0.340549
Fe            0.349222     -0.082874     -0.032640
Fe           -0.151297     -0.071454     -0.225849
Fe           -0.362798     -0.254890      0.013521
H            -0.130371     -0.223322      0.038198
H            -0.434078     -0.061121     -0.214222
H             0.117962     -0.084831     -0.050717
H             0.396672     -0.253327      0.192647
O            -0.200621     -0.239373     -0.088927
O            -0.305458     -0.082691      0.144603
O             0.196696     -0.094962      0.097335
O             0.302874     -0.247225     -0.159436
O            -0.062257     -0.243924      0.129032
O            -0.455781     -0.064209     -0.111493
O             0.046484     -0.093507     -0.135484
O             0.449100     -0.238208      0.101260
Fe            0.158128      0.068504      0.226807
Fe            0.354041      0.242549     -0.006336
Fe           -0.154845      0.265933     -0.221759
Fe           -0.353494      0.087270      0.014070
H            -0.064109      0.072343      0.039442
H            -0.411492      0.270611     -0.211147
H             0.069258      0.251511     -0.046998
H             0.411817      0.068732      0.211967
O            -0.196058      0.082834     -0.093385
O            -0.296977      0.249842      0.144339
O             0.192801      0.234218      0.092828
O             0.289021      0.082398     -0.140701
O            -0.044757      0.084154      0.141360
O            -0.444714      0.257090     -0.114175
O             0.031350      0.238612     -0.143172
O             0.454928      0.077413      0.114711
Fe            0.153406      0.411230      0.229789
Fe            0.351754     -0.415970     -0.041693
Fe           -0.142490     -0.416010     -0.235363
Fe           -0.351587      0.420152      0.020183
H            -0.072448      0.452950      0.047351
H            -0.409705     -0.423639     -0.201221
H             0.060862     -0.419540     -0.044260
H             0.427887      0.436135      0.197890
O            -0.205417      0.426164     -0.104898
O            -0.302543     -0.418072      0.160803
O             0.205357     -0.413324      0.101133
O             0.293423      0.399924     -0.144667
O            -0.042142      0.431750      0.143913
O            -0.449182     -0.410699     -0.106442
O             0.051089     -0.426526     -0.147543
O             0.450192      0.420763      0.098628
Fe            0.147411     -0.254787     -0.269413
Fe            0.357277     -0.082265     -0.499092
Fe           -0.146468     -0.067338      0.293334
Fe           -0.343870     -0.239771     -0.480199
H            -0.061541     -0.248228     -0.457241
H            -0.369376     -0.069696      0.231316
H             0.086686     -0.080190      0.456903
H             0.447889     -0.249714     -0.298324
O            -0.184317     -0.249775      0.399621
O            -0.304792     -0.076284     -0.352324
O             0.194873     -0.092637     -0.398298
O             0.310435     -0.261690      0.362981
O            -0.046723     -0.243690     -0.353242
O            -0.434003     -0.086821      0.372234
O             0.038258     -0.079199      0.366353
O             0.460898     -0.259885     -0.400798
Fe            0.133740      0.071214     -0.257692
Fe            0.344534      0.228869      0.472298
Fe           -0.146518      0.253500      0.262094
Fe           -0.354428      0.101679     -0.475391
H            -0.080629      0.087714     -0.440450
H            -0.412334      0.234569      0.303751
H             0.053041      0.249824      0.448699
H             0.400765      0.075274     -0.287966
O            -0.189120      0.098934      0.403302
O            -0.285116      0.261746     -0.361425
O             0.201462      0.233006     -0.383409
O             0.316151      0.055259      0.340826
O            -0.057325      0.093443     -0.338518
O            -0.450113      0.251454      0.398774
O             0.056196      0.246746      0.347425
O             0.441231      0.089376     -0.384153
Fe            0.139210      0.401620     -0.280824
Cu            0.353054     -0.441442      0.483059
Fe           -0.123820     -0.405632      0.281085
Fe           -0.361451      0.438263     -0.486451
H            -0.092971      0.415770     -0.460615
H            -0.400627     -0.411788      0.289947
H             0.100604     -0.413771      0.443855
H             0.418909      0.400719     -0.294532
O            -0.187393      0.426140      0.409007
O            -0.313493     -0.408101     -0.347783
O             0.174839     -0.426462     -0.404255
O             0.287883      0.394280      0.362870
O            -0.051644      0.423205     -0.360108
O            -0.441867     -0.406573      0.388807
O             0.058277     -0.424331      0.347626
O             0.444854      0.402488     -0.396855
H             0.497830     -0.119180      0.307197
H             0.019652     -0.177881      0.120302
H             0.154356     -0.327479      0.110886
data_nwchem_pspw

_audit_creation_date   Thu Nov 23 20:56:15 2023
_audit_creation_method    generated by PSPW module of NWChem


_cell_length_a            10.0667
_cell_length_b             9.1552
_cell_length_c             9.2041
_cell_angle_alpha         90.0000
_cell_angle_beta          90.0000
_cell_angle_gamma         90.0000

_symmetry_space_group_name_H-M     P1  

loop_
_atom_site_type_symbol
_atom_site_fract_x
_atom_site_fract_y
_atom_site_fract_z
H             0.192472     -0.259559      0.353105
Fe            0.337777     -0.077669     -0.031580
Fe           -0.133726     -0.066574     -0.219182
Fe           -0.350260     -0.259934      0.018425
H            -0.084934     -0.238212      0.037424
H            -0.456649     -0.097970     -0.208253
H             0.102737     -0.088952     -0.069209
H             0.385808     -0.258547      0.176120
O            -0.202716     -0.251701     -0.098793
O            -0.305607     -0.085214      0.158665
O             0.190910     -0.099454      0.096588
O             0.278276     -0.234866     -0.162214
O            -0.043746     -0.248753      0.134493
O            -0.470837     -0.093002     -0.105350
O             0.052559     -0.069068     -0.157691
O             0.439257     -0.240711      0.090716
Fe            0.145055      0.077527      0.214844
Fe            0.343437      0.257854     -0.029058
Fe           -0.154092      0.251618     -0.215832
Fe           -0.370426      0.079187      0.027408
H            -0.106266      0.108419      0.067689
H            -0.404948      0.229758     -0.192901
H             0.085175      0.255721     -0.051935
H             0.400456      0.087172      0.202293
O            -0.208218      0.082107     -0.084664
O            -0.308460      0.247635      0.168964
O             0.188249      0.260883      0.105947
O             0.300458      0.093974     -0.150016
O            -0.060269      0.093511      0.159171
O            -0.439533      0.241433     -0.095084
O             0.058946      0.249838     -0.153628
O             0.434786      0.082054      0.104825
Fe            0.151447      0.431089      0.244133
Fe            0.359068     -0.400158     -0.050850
Fe           -0.140385     -0.423123     -0.215166
Fe           -0.350646      0.417128      0.044409
H            -0.108126      0.427013      0.071815
H            -0.403283     -0.428869     -0.201819
H             0.096778     -0.411032     -0.052273
H             0.420734      0.428320      0.202871
O            -0.188846      0.404746     -0.089720
O            -0.321315     -0.408048      0.168794
O             0.198106     -0.409742      0.084828
O             0.297282      0.424415     -0.160078
O            -0.059841      0.424477      0.162409
O            -0.438761     -0.414984     -0.104524
O             0.052277     -0.396241     -0.147018
O             0.445286      0.424082      0.100404
Fe            0.136390     -0.253963     -0.295270
Fe            0.351841     -0.085431      0.468859
Fe           -0.131448     -0.070973      0.273599
Fe           -0.346442     -0.268461     -0.471577
H            -0.082273     -0.247066     -0.445874
H            -0.389795     -0.090473      0.225797
H             0.087981     -0.019273      0.443125
H             0.394711     -0.286449     -0.322752
O            -0.197671     -0.244280      0.399609
O            -0.286947     -0.078141     -0.351964
O             0.217092     -0.079561     -0.389195
O             0.288343     -0.251032      0.355449
O            -0.054127     -0.262855     -0.346637
O            -0.460871     -0.114853      0.366427
O             0.071653     -0.075979      0.357976
O             0.446765     -0.271421     -0.408078
Fe            0.149783      0.090708     -0.276953
Fe            0.348755      0.240625      0.469736
Fe           -0.144627      0.258757      0.274353
Fe           -0.344327      0.084573     -0.471894
H            -0.076070      0.069607     -0.458047
H            -0.435559      0.251856      0.304210
H             0.067422      0.273515      0.461670
H             0.417859      0.078012     -0.312752
O            -0.191024      0.089337      0.405287
O            -0.302848      0.236691     -0.337682
O             0.185314      0.250727     -0.405239
O             0.296516      0.082889      0.342485
O            -0.048020      0.099084     -0.361091
O            -0.454293      0.230537      0.404113
O             0.043991      0.267356      0.359945
O             0.454948      0.072734     -0.408938
Fe            0.142622      0.420486     -0.277164
Cu            0.364134     -0.424608      0.467435
Fe           -0.141870     -0.418095      0.300980
Fe           -0.356132      0.403797     -0.476015
H            -0.060716      0.425396     -0.452796
H            -0.407225     -0.425999      0.292145
H             0.090149     -0.409394      0.468423
H             0.453945      0.389126     -0.288560
O            -0.200744      0.411470      0.406658
O            -0.290153     -0.429200     -0.352056
O             0.190429     -0.422832     -0.405916
O             0.312325      0.408202      0.345717
O            -0.056564      0.412936     -0.349290
O            -0.438243     -0.433736      0.395299
O             0.046732     -0.420022      0.371453
O             0.470618      0.411493     -0.388927
H            -0.473283     -0.212097      0.332546
H             0.049714     -0.205414      0.127691
H             0.190185     -0.311713      0.121812