data_nwchem_pspw

_audit_creation_date   Tue Sep 27 16:57:35 2022
_audit_creation_method    generated by PSPW module of NWChem


_cell_length_a            10.0667
_cell_length_b             9.1552
_cell_length_c             9.2041
_cell_angle_alpha         90.0000
_cell_angle_beta          90.0000
_cell_angle_gamma         90.0000

_symmetry_space_group_name_H-M     P1  

loop_
_atom_site_type_symbol
_atom_site_fract_x
_atom_site_fract_y
_atom_site_fract_z
Fe            0.146735     -0.250000      0.224756
Fe            0.353175     -0.083327     -0.025375
Fe           -0.146825     -0.083327     -0.224625
Fe           -0.353265     -0.250000      0.025244
H            -0.085221     -0.250000      0.049134
H            -0.414737     -0.083030     -0.201101
H             0.085263     -0.083030     -0.048899
H             0.414779     -0.250000      0.200866
O            -0.196748     -0.250000     -0.095276
O            -0.303195     -0.083277      0.154599
O             0.196805     -0.083277      0.095401
O             0.303252     -0.250000     -0.154724
O            -0.053396     -0.250000      0.148894
O            -0.446594     -0.082953     -0.101355
O             0.053406     -0.082954     -0.148645
O             0.446604     -0.250000      0.101106
Fe            0.146825      0.083327      0.224625
Fe            0.353265      0.250000     -0.025244
Fe           -0.146735      0.250000     -0.224756
Fe           -0.353175      0.083327      0.025375
H            -0.085263      0.083030      0.048899
H            -0.414779      0.250000     -0.200866
H             0.085221      0.250000     -0.049134
H             0.414737      0.083030      0.201101
O            -0.196805      0.083277     -0.095401
O            -0.303252      0.250000      0.154724
O             0.196748      0.250000      0.095276
O             0.303195      0.083277     -0.154599
O            -0.053406      0.082954      0.148645
O            -0.446604      0.250000     -0.101106
O             0.053396      0.250000     -0.148894
O             0.446594      0.082953      0.101355
Fe            0.146825      0.416673      0.224625
Fe            0.353175     -0.416673     -0.025375
Fe           -0.146825     -0.416673     -0.224625
Fe           -0.353175      0.416673      0.025375
H            -0.085263      0.416970      0.048899
H            -0.414737     -0.416970     -0.201101
H             0.085263     -0.416970     -0.048899
H             0.414737      0.416970      0.201101
O            -0.196805      0.416723     -0.095401
O            -0.303195     -0.416723      0.154599
O             0.196805     -0.416723      0.095401
O             0.303195      0.416723     -0.154599
O            -0.053406      0.417047      0.148645
O            -0.446594     -0.417047     -0.101355
O             0.053406     -0.417047     -0.148645
O             0.446594      0.417046      0.101355
Fe            0.146735     -0.250000     -0.275244
Fe            0.353175     -0.083327      0.474625
Fe           -0.146825     -0.083327      0.275375
Fe           -0.353265     -0.250000     -0.474756
H            -0.085221     -0.250000     -0.450866
H            -0.414737     -0.083030      0.298899
H             0.085263     -0.083030      0.451101
H             0.414779     -0.250000     -0.299134
O            -0.196748     -0.250000      0.404724
O            -0.303195     -0.083277     -0.345401
O             0.196805     -0.083277     -0.404599
O             0.303252     -0.250000      0.345276
O            -0.053396     -0.250000     -0.351106
O            -0.446594     -0.082953      0.398645
O             0.053406     -0.082954      0.351355
O             0.446604     -0.250000     -0.398894
Fe            0.146825      0.083327     -0.275375
H             0.353265      0.250000      0.474756
Fe           -0.146735      0.250000      0.275244
Fe           -0.353175      0.083327     -0.474625
H            -0.085263      0.083030     -0.451101
H            -0.414779      0.250000      0.299134
H             0.085221      0.250000      0.450866
H             0.414737      0.083030     -0.298899
O            -0.196805      0.083277      0.404599
O            -0.303252      0.250000     -0.345276
O             0.196748      0.250000     -0.404724
O             0.303195      0.083277      0.345401
O            -0.053406      0.082954     -0.351355
O            -0.446604      0.250000      0.398894
O             0.053396      0.250000      0.351106
O             0.446594      0.082953     -0.398645
Fe            0.146825      0.416673     -0.275375
Ni            0.353175     -0.416673      0.474625
Fe           -0.146825     -0.416673      0.275375
Fe           -0.353175      0.416673     -0.474625
H            -0.085263      0.416970     -0.451101
H            -0.414737     -0.416970      0.298899
H             0.085263     -0.416970      0.451101
H             0.414737      0.416970     -0.298899
O            -0.196805      0.416723      0.404599
O            -0.303195     -0.416723     -0.345401
O             0.196805     -0.416723     -0.404599
O             0.303195      0.416723      0.345401
O            -0.053406      0.417047     -0.351355
O            -0.446594     -0.417047      0.398645
O             0.053406     -0.417047      0.351355
O             0.446594      0.417046     -0.398645
H             0.451134     -0.207847      0.346694
H             0.253265      0.250000      0.404756
H             0.353265      0.350000      0.474756
data_nwchem_pspw

_audit_creation_date   Tue Sep 27 17:11:18 2022
_audit_creation_method    generated by PSPW module of NWChem


_cell_length_a            10.0667
_cell_length_b             9.1552
_cell_length_c             9.2041
_cell_angle_alpha         90.0000
_cell_angle_beta          90.0000
_cell_angle_gamma         90.0000

_symmetry_space_group_name_H-M     P1  

loop_
_atom_site_type_symbol
_atom_site_fract_x
_atom_site_fract_y
_atom_site_fract_z
Fe            0.146735     -0.250000      0.224756
Fe            0.353175     -0.083327     -0.025375
Fe           -0.146825     -0.083327     -0.224625
Fe           -0.353265     -0.250000      0.025244
H            -0.085221     -0.250000      0.049134
H            -0.414737     -0.083030     -0.201101
H             0.085263     -0.083030     -0.048899
H             0.414779     -0.250000      0.200866
O            -0.196748     -0.250000     -0.095276
O            -0.303195     -0.083277      0.154599
O             0.196805     -0.083277      0.095401
O             0.303252     -0.250000     -0.154724
O            -0.053396     -0.250000      0.148894
O            -0.446594     -0.082953     -0.101355
O             0.053406     -0.082954     -0.148645
O             0.446604     -0.250000      0.101106
Fe            0.146825      0.083327      0.224625
Fe            0.353265      0.250000     -0.025244
Fe           -0.146735      0.250000     -0.224756
Fe           -0.353175      0.083327      0.025375
H            -0.085263      0.083030      0.048899
H            -0.414779      0.250000     -0.200866
H             0.085221      0.250000     -0.049134
H             0.414737      0.083030      0.201101
O            -0.196805      0.083277     -0.095401
O            -0.303252      0.250000      0.154724
O             0.196748      0.250000      0.095276
O             0.303195      0.083277     -0.154599
O            -0.053406      0.082954      0.148645
O            -0.446604      0.250000     -0.101106
O             0.053396      0.250000     -0.148894
O             0.446594      0.082953      0.101355
Fe            0.146825      0.416673      0.224625
Fe            0.353175     -0.416673     -0.025375
Fe           -0.146825     -0.416673     -0.224625
Fe           -0.353175      0.416673      0.025375
H            -0.085263      0.416970      0.048899
H            -0.414737     -0.416970     -0.201101
H             0.085263     -0.416970     -0.048899
H             0.414737      0.416970      0.201101
O            -0.196805      0.416723     -0.095401
O            -0.303195     -0.416723      0.154599
O             0.196805     -0.416723      0.095401
O             0.303195      0.416723     -0.154599
O            -0.053406      0.417047      0.148645
O            -0.446594     -0.417047     -0.101355
O             0.053406     -0.417047     -0.148645
O             0.446594      0.417046      0.101355
Fe            0.146735     -0.250000     -0.275244
Fe            0.353175     -0.083327      0.474625
Fe           -0.146825     -0.083327      0.275375
Fe           -0.353265     -0.250000     -0.474756
H            -0.085221     -0.250000     -0.450866
H            -0.414737     -0.083030      0.298899
H             0.085263     -0.083030      0.451101
H             0.414779     -0.250000     -0.299134
O            -0.196748     -0.250000      0.404724
O            -0.303195     -0.083277     -0.345401
O             0.196805     -0.083277     -0.404599
O             0.303252     -0.250000      0.345276
O            -0.053396     -0.250000     -0.351106
O            -0.446594     -0.082953      0.398645
O             0.053406     -0.082954      0.351355
O             0.446604     -0.250000     -0.398894
Fe            0.146825      0.083327     -0.275375
H             0.353265      0.250000      0.474756
Fe           -0.146735      0.250000      0.275244
Fe           -0.353175      0.083327     -0.474625
H            -0.085263      0.083030     -0.451101
H            -0.414779      0.250000      0.299134
H             0.085221      0.250000      0.450866
H             0.414737      0.083030     -0.298899
O            -0.196805      0.083277      0.404599
O            -0.303252      0.250000     -0.345276
O             0.196748      0.250000     -0.404724
O             0.303195      0.083277      0.345401
O            -0.053406      0.082954     -0.351355
O            -0.446604      0.250000      0.398894
O             0.053396      0.250000      0.351106
O             0.446594      0.082953     -0.398645
Fe            0.146825      0.416673     -0.275375
Ni            0.353175     -0.416673      0.474625
Fe           -0.146825     -0.416673      0.275375
Fe           -0.353175      0.416673     -0.474625
H            -0.085263      0.416970     -0.451101
H            -0.414737     -0.416970      0.298899
H             0.085263     -0.416970      0.451101
H             0.414737      0.416970     -0.298899
O            -0.196805      0.416723      0.404599
O            -0.303195     -0.416723     -0.345401
O             0.196805     -0.416723     -0.404599
O             0.303195      0.416723      0.345401
O            -0.053406      0.417047     -0.351355
O            -0.446594     -0.417047      0.398645
O             0.053406     -0.417047      0.351355
O             0.446594      0.417046     -0.398645
H             0.451134     -0.207847      0.346694
H             0.253265      0.250000      0.404756
H             0.353265      0.350000      0.474756
data_nwchem_pspw

_audit_creation_date   Tue Sep 27 17:14:04 2022
_audit_creation_method    generated by PSPW module of NWChem


_cell_length_a            10.0667
_cell_length_b             9.1552
_cell_length_c             9.2041
_cell_angle_alpha         90.0000
_cell_angle_beta          90.0000
_cell_angle_gamma         90.0000

_symmetry_space_group_name_H-M     P1  

loop_
_atom_site_type_symbol
_atom_site_fract_x
_atom_site_fract_y
_atom_site_fract_z
Fe            0.146735     -0.250000      0.224756
Fe            0.353175     -0.083327     -0.025375
Fe           -0.146825     -0.083327     -0.224625
Fe           -0.353265     -0.250000      0.025244
H            -0.085221     -0.250000      0.049134
H            -0.414737     -0.083030     -0.201101
H             0.085263     -0.083030     -0.048899
H             0.414779     -0.250000      0.200866
O            -0.196748     -0.250000     -0.095276
O            -0.303195     -0.083277      0.154599
O             0.196805     -0.083277      0.095401
O             0.303252     -0.250000     -0.154724
O            -0.053396     -0.250000      0.148894
O            -0.446594     -0.082953     -0.101355
O             0.053406     -0.082954     -0.148645
O             0.446604     -0.250000      0.101106
Fe            0.146825      0.083327      0.224625
Fe            0.353265      0.250000     -0.025244
Fe           -0.146735      0.250000     -0.224756
Fe           -0.353175      0.083327      0.025375
H            -0.085263      0.083030      0.048899
H            -0.414779      0.250000     -0.200866
H             0.085221      0.250000     -0.049134
H             0.414737      0.083030      0.201101
O            -0.196805      0.083277     -0.095401
O            -0.303252      0.250000      0.154724
O             0.196748      0.250000      0.095276
O             0.303195      0.083277     -0.154599
O            -0.053406      0.082954      0.148645
O            -0.446604      0.250000     -0.101106
O             0.053396      0.250000     -0.148894
O             0.446594      0.082953      0.101355
Fe            0.146825      0.416673      0.224625
Fe            0.353175     -0.416673     -0.025375
Fe           -0.146825     -0.416673     -0.224625
Fe           -0.353175      0.416673      0.025375
H            -0.085263      0.416970      0.048899
H            -0.414737     -0.416970     -0.201101
H             0.085263     -0.416970     -0.048899
H             0.414737      0.416970      0.201101
O            -0.196805      0.416723     -0.095401
O            -0.303195     -0.416723      0.154599
O             0.196805     -0.416723      0.095401
O             0.303195      0.416723     -0.154599
O            -0.053406      0.417047      0.148645
O            -0.446594     -0.417047     -0.101355
O             0.053406     -0.417047     -0.148645
O             0.446594      0.417046      0.101355
Fe            0.146735     -0.250000     -0.275244
Fe            0.353175     -0.083327      0.474625
Fe           -0.146825     -0.083327      0.275375
Fe           -0.353265     -0.250000     -0.474756
H            -0.085221     -0.250000     -0.450866
H            -0.414737     -0.083030      0.298899
H             0.085263     -0.083030      0.451101
H             0.414779     -0.250000     -0.299134
O            -0.196748     -0.250000      0.404724
O            -0.303195     -0.083277     -0.345401
O             0.196805     -0.083277     -0.404599
O             0.303252     -0.250000      0.345276
O            -0.053396     -0.250000     -0.351106
O            -0.446594     -0.082953      0.398645
O             0.053406     -0.082954      0.351355
O             0.446604     -0.250000     -0.398894
Fe            0.146825      0.083327     -0.275375
H             0.353265      0.250000      0.474756
Fe           -0.146735      0.250000      0.275244
Fe           -0.353175      0.083327     -0.474625
H            -0.085263      0.083030     -0.451101
H            -0.414779      0.250000      0.299134
H             0.085221      0.250000      0.450866
H             0.414737      0.083030     -0.298899
O            -0.196805      0.083277      0.404599
O            -0.303252      0.250000     -0.345276
O             0.196748      0.250000     -0.404724
O             0.303195      0.083277      0.345401
O            -0.053406      0.082954     -0.351355
O            -0.446604      0.250000      0.398894
O             0.053396      0.250000      0.351106
O             0.446594      0.082953     -0.398645
Fe            0.146825      0.416673     -0.275375
Ni            0.353175     -0.416673      0.474625
Fe           -0.146825     -0.416673      0.275375
Fe           -0.353175      0.416673     -0.474625
H            -0.085263      0.416970     -0.451101
H            -0.414737     -0.416970      0.298899
H             0.085263     -0.416970      0.451101
H             0.414737      0.416970     -0.298899
O            -0.196805      0.416723      0.404599
O            -0.303195     -0.416723     -0.345401
O             0.196805     -0.416723     -0.404599
O             0.303195      0.416723      0.345401
O            -0.053406      0.417047     -0.351355
O            -0.446594     -0.417047      0.398645
O             0.053406     -0.417047      0.351355
O             0.446594      0.417046     -0.398645
H             0.451134     -0.207847      0.346694
H             0.253265      0.250000      0.404756
H             0.353265      0.350000      0.474756
data_nwchem_pspw

_audit_creation_date   Tue Sep 27 17:15:56 2022
_audit_creation_method    generated by PSPW module of NWChem


_cell_length_a            10.0667
_cell_length_b             9.1552
_cell_length_c             9.2041
_cell_angle_alpha         90.0000
_cell_angle_beta          90.0000
_cell_angle_gamma         90.0000

_symmetry_space_group_name_H-M     P1  

loop_
_atom_site_type_symbol
_atom_site_fract_x
_atom_site_fract_y
_atom_site_fract_z
Fe            0.146735     -0.250000      0.224756
Fe            0.353175     -0.083327     -0.025375
Fe           -0.146825     -0.083327     -0.224625
Fe           -0.353265     -0.250000      0.025244
H            -0.085221     -0.250000      0.049134
H            -0.414737     -0.083030     -0.201101
H             0.085263     -0.083030     -0.048899
H             0.414779     -0.250000      0.200866
O            -0.196748     -0.250000     -0.095276
O            -0.303195     -0.083277      0.154599
O             0.196805     -0.083277      0.095401
O             0.303252     -0.250000     -0.154724
O            -0.053396     -0.250000      0.148894
O            -0.446594     -0.082953     -0.101355
O             0.053406     -0.082954     -0.148645
O             0.446604     -0.250000      0.101106
Fe            0.146825      0.083327      0.224625
Fe            0.353265      0.250000     -0.025244
Fe           -0.146735      0.250000     -0.224756
Fe           -0.353175      0.083327      0.025375
H            -0.085263      0.083030      0.048899
H            -0.414779      0.250000     -0.200866
H             0.085221      0.250000     -0.049134
H             0.414737      0.083030      0.201101
O            -0.196805      0.083277     -0.095401
O            -0.303252      0.250000      0.154724
O             0.196748      0.250000      0.095276
O             0.303195      0.083277     -0.154599
O            -0.053406      0.082954      0.148645
O            -0.446604      0.250000     -0.101106
O             0.053396      0.250000     -0.148894
O             0.446594      0.082953      0.101355
Fe            0.146825      0.416673      0.224625
Fe            0.353175     -0.416673     -0.025375
Fe           -0.146825     -0.416673     -0.224625
Fe           -0.353175      0.416673      0.025375
H            -0.085263      0.416970      0.048899
H            -0.414737     -0.416970     -0.201101
H             0.085263     -0.416970     -0.048899
H             0.414737      0.416970      0.201101
O            -0.196805      0.416723     -0.095401
O            -0.303195     -0.416723      0.154599
O             0.196805     -0.416723      0.095401
O             0.303195      0.416723     -0.154599
O            -0.053406      0.417047      0.148645
O            -0.446594     -0.417047     -0.101355
O             0.053406     -0.417047     -0.148645
O             0.446594      0.417046      0.101355
Fe            0.146735     -0.250000     -0.275244
Fe            0.353175     -0.083327      0.474625
Fe           -0.146825     -0.083327      0.275375
Fe           -0.353265     -0.250000     -0.474756
H            -0.085221     -0.250000     -0.450866
H            -0.414737     -0.083030      0.298899
H             0.085263     -0.083030      0.451101
H             0.414779     -0.250000     -0.299134
O            -0.196748     -0.250000      0.404724
O            -0.303195     -0.083277     -0.345401
O             0.196805     -0.083277     -0.404599
O             0.303252     -0.250000      0.345276
O            -0.053396     -0.250000     -0.351106
O            -0.446594     -0.082953      0.398645
O             0.053406     -0.082954      0.351355
O             0.446604     -0.250000     -0.398894
Fe            0.146825      0.083327     -0.275375
H             0.353265      0.250000      0.474756
Fe           -0.146735      0.250000      0.275244
Fe           -0.353175      0.083327     -0.474625
H            -0.085263      0.083030     -0.451101
H            -0.414779      0.250000      0.299134
H             0.085221      0.250000      0.450866
H             0.414737      0.083030     -0.298899
O            -0.196805      0.083277      0.404599
O            -0.303252      0.250000     -0.345276
O             0.196748      0.250000     -0.404724
O             0.303195      0.083277      0.345401
O            -0.053406      0.082954     -0.351355
O            -0.446604      0.250000      0.398894
O             0.053396      0.250000      0.351106
O             0.446594      0.082953     -0.398645
Fe            0.146825      0.416673     -0.275375
Ni            0.353175     -0.416673      0.474625
Fe           -0.146825     -0.416673      0.275375
Fe           -0.353175      0.416673     -0.474625
H            -0.085263      0.416970     -0.451101
H            -0.414737     -0.416970      0.298899
H             0.085263     -0.416970      0.451101
H             0.414737      0.416970     -0.298899
O            -0.196805      0.416723      0.404599
O            -0.303195     -0.416723     -0.345401
O             0.196805     -0.416723     -0.404599
O             0.303195      0.416723      0.345401
O            -0.053406      0.417047     -0.351355
O            -0.446594     -0.417047      0.398645
O             0.053406     -0.417047      0.351355
O             0.446594      0.417046     -0.398645
H             0.451134     -0.207847      0.346694
H             0.253265      0.250000      0.404756
H             0.353265      0.350000      0.474756
data_nwchem_pspw

_audit_creation_date   Tue Sep 27 17:51:44 2022
_audit_creation_method    generated by PSPW module of NWChem


_cell_length_a            10.0667
_cell_length_b             9.1552
_cell_length_c             9.2041
_cell_angle_alpha         90.0000
_cell_angle_beta          90.0000
_cell_angle_gamma         90.0000

_symmetry_space_group_name_H-M     P1  

loop_
_atom_site_type_symbol
_atom_site_fract_x
_atom_site_fract_y
_atom_site_fract_z
Fe            0.146735     -0.250000      0.224756
Fe            0.353175     -0.083327     -0.025375
Fe           -0.146825     -0.083327     -0.224625
Fe           -0.353265     -0.250000      0.025244
H            -0.085221     -0.250000      0.049134
H            -0.414737     -0.083030     -0.201101
H             0.085263     -0.083030     -0.048899
H             0.414779     -0.250000      0.200866
O            -0.196748     -0.250000     -0.095276
O            -0.303195     -0.083277      0.154599
O             0.196805     -0.083277      0.095401
O             0.303252     -0.250000     -0.154724
O            -0.053396     -0.250000      0.148894
O            -0.446594     -0.082953     -0.101355
O             0.053406     -0.082954     -0.148645
O             0.446604     -0.250000      0.101106
Fe            0.146825      0.083327      0.224625
Fe            0.353265      0.250000     -0.025244
Fe           -0.146735      0.250000     -0.224756
Fe           -0.353175      0.083327      0.025375
H            -0.085263      0.083030      0.048899
H            -0.414779      0.250000     -0.200866
H             0.085221      0.250000     -0.049134
H             0.414737      0.083030      0.201101
O            -0.196805      0.083277     -0.095401
O            -0.303252      0.250000      0.154724
O             0.196748      0.250000      0.095276
O             0.303195      0.083277     -0.154599
O            -0.053406      0.082954      0.148645
O            -0.446604      0.250000     -0.101106
O             0.053396      0.250000     -0.148894
O             0.446594      0.082953      0.101355
Fe            0.146825      0.416673      0.224625
Fe            0.353175     -0.416673     -0.025375
Fe           -0.146825     -0.416673     -0.224625
Fe           -0.353175      0.416673      0.025375
H            -0.085263      0.416970      0.048899
H            -0.414737     -0.416970     -0.201101
H             0.085263     -0.416970     -0.048899
H             0.414737      0.416970      0.201101
O            -0.196805      0.416723     -0.095401
O            -0.303195     -0.416723      0.154599
O             0.196805     -0.416723      0.095401
O             0.303195      0.416723     -0.154599
O            -0.053406      0.417047      0.148645
O            -0.446594     -0.417047     -0.101355
O             0.053406     -0.417047     -0.148645
O             0.446594      0.417046      0.101355
Fe            0.146735     -0.250000     -0.275244
Fe            0.353175     -0.083327      0.474625
Fe           -0.146825     -0.083327      0.275375
Fe           -0.353265     -0.250000     -0.474756
H            -0.085221     -0.250000     -0.450866
H            -0.414737     -0.083030      0.298899
H             0.085263     -0.083030      0.451101
H             0.414779     -0.250000     -0.299134
O            -0.196748     -0.250000      0.404724
O            -0.303195     -0.083277     -0.345401
O             0.196805     -0.083277     -0.404599
O             0.303252     -0.250000      0.345276
O            -0.053396     -0.250000     -0.351106
O            -0.446594     -0.082953      0.398645
O             0.053406     -0.082954      0.351355
O             0.446604     -0.250000     -0.398894
Fe            0.146825      0.083327     -0.275375
H             0.353265      0.250000      0.474756
Fe           -0.146735      0.250000      0.275244
Fe           -0.353175      0.083327     -0.474625
H            -0.085263      0.083030     -0.451101
H            -0.414779      0.250000      0.299134
H             0.085221      0.250000      0.450866
H             0.414737      0.083030     -0.298899
O            -0.196805      0.083277      0.404599
O            -0.303252      0.250000     -0.345276
O             0.196748      0.250000     -0.404724
O             0.303195      0.083277      0.345401
O            -0.053406      0.082954     -0.351355
O            -0.446604      0.250000      0.398894
O             0.053396      0.250000      0.351106
O             0.446594      0.082953     -0.398645
Fe            0.146825      0.416673     -0.275375
Ni            0.353175     -0.416673      0.474625
Fe           -0.146825     -0.416673      0.275375
Fe           -0.353175      0.416673     -0.474625
H            -0.085263      0.416970     -0.451101
H            -0.414737     -0.416970      0.298899
H             0.085263     -0.416970      0.451101
H             0.414737      0.416970     -0.298899
O            -0.196805      0.416723      0.404599
O            -0.303195     -0.416723     -0.345401
O             0.196805     -0.416723     -0.404599
O             0.303195      0.416723      0.345401
O            -0.053406      0.417047     -0.351355
O            -0.446594     -0.417047      0.398645
O             0.053406     -0.417047      0.351355
O             0.446594      0.417046     -0.398645
H             0.451134     -0.207847      0.346694
H             0.253265      0.250000      0.404756
H             0.353265      0.350000      0.474756
data_nwchem_pspw

_audit_creation_date   Thu Sep 29 02:56:50 2022
_audit_creation_method    generated by PSPW module of NWChem


_cell_length_a            10.0667
_cell_length_b             9.1552
_cell_length_c             9.2041
_cell_angle_alpha         90.0000
_cell_angle_beta          90.0000
_cell_angle_gamma         90.0000

_symmetry_space_group_name_H-M     P1  

loop_
_atom_site_type_symbol
_atom_site_fract_x
_atom_site_fract_y
_atom_site_fract_z
Fe            0.140058     -0.252165      0.212816
Fe            0.367730     -0.093116     -0.007361
Fe           -0.140017     -0.084188     -0.228822
Fe           -0.367300     -0.255788      0.026585
H            -0.089489     -0.237907      0.051979
H            -0.404655     -0.139874     -0.198012
H             0.099688     -0.072025     -0.064072
H             0.356456     -0.259574      0.240698
O            -0.193077     -0.245092     -0.093947
O            -0.302548     -0.078378      0.171504
O             0.190841     -0.084936      0.090353
O             0.294270     -0.250726     -0.145733
O            -0.054719     -0.250449      0.151360
O            -0.432891     -0.083036     -0.105382
O             0.059166     -0.073449     -0.160878
O             0.452767     -0.255851      0.103650
Fe            0.144531      0.095075      0.207224
Fe            0.366609      0.264833     -0.021907
Fe           -0.142347      0.259259     -0.216630
Fe           -0.349572      0.085179      0.017763
H            -0.087347      0.083757      0.037868
H            -0.406215      0.264607     -0.215643
H             0.098303      0.264587     -0.062253
H             0.409972      0.076718      0.200341
O            -0.181912      0.084598     -0.084614
O            -0.291919      0.243269      0.148656
O             0.199645      0.258796      0.089606
O             0.296727      0.080086     -0.154705
O            -0.044867      0.092615      0.137871
O            -0.432128      0.250914     -0.114332
O             0.063889      0.264673     -0.159809
O             0.464962      0.067199      0.103291
Fe            0.139120      0.415139      0.232470
Fe            0.354621     -0.413533     -0.025181
Fe           -0.152159     -0.407129     -0.222453
Fe           -0.354853      0.411839      0.032378
H            -0.085898      0.421712      0.037602
H            -0.420266     -0.425483     -0.206025
H             0.082010     -0.430158     -0.054314
H             0.414774      0.409732      0.209067
O            -0.195004      0.412975     -0.092116
O            -0.309895     -0.429259      0.160032
O             0.193049     -0.423174      0.097328
O             0.310655      0.412420     -0.160356
O            -0.059716      0.428377      0.138993
O            -0.456481     -0.427906     -0.105984
O             0.041563     -0.429154     -0.151500
O             0.441958      0.419136      0.106040
Fe            0.136321     -0.257957     -0.273694
Fe            0.351727     -0.077570      0.497799
Fe           -0.137695     -0.079472      0.289544
Fe           -0.371095     -0.253297     -0.477372
H            -0.099154     -0.265021     -0.447747
H            -0.373030     -0.083468      0.241031
H             0.099637     -0.078721      0.439109
H             0.421358     -0.251832     -0.296641
O            -0.189375     -0.260467      0.419180
O            -0.298930     -0.090678     -0.340943
O             0.184175     -0.092117     -0.407365
O             0.310840     -0.245750      0.339752
O            -0.055697     -0.245365     -0.352904
O            -0.456205     -0.103147      0.395847
O             0.061654     -0.072772      0.341086
O             0.433592     -0.247041     -0.401156
Fe            0.135154      0.086145     -0.297558
H            -0.488425      0.003141     -0.293015
Fe           -0.136085      0.257477      0.263724
Fe           -0.352427      0.092148     -0.489001
H            -0.083828      0.092411     -0.450368
H            -0.398377      0.228908      0.303529
H             0.131657      0.243194      0.468123
H             0.373825      0.099357     -0.205670
O            -0.184506      0.091111      0.395633
O            -0.292898      0.245614     -0.354271
O             0.188098      0.240668     -0.422943
O             0.313200      0.081782      0.351299
O            -0.064336      0.083041     -0.348008
O            -0.446789      0.226399      0.396156
O             0.059386      0.255430      0.345458
O             0.466582      0.053363     -0.366006
Fe            0.145157      0.423531     -0.285894
Ni            0.367852     -0.429327      0.489550
Fe           -0.149877     -0.418656      0.279588
Fe           -0.375442      0.414752     -0.469260
H            -0.103665      0.414227     -0.446277
H            -0.423417     -0.420710      0.299844
H             0.095323     -0.422892      0.446047
H             0.396647      0.401786     -0.301603
O            -0.202638      0.419479      0.413281
O            -0.313773     -0.421315     -0.346973
O             0.187092     -0.410681     -0.418583
O             0.317865      0.435329      0.341108
O            -0.059742      0.429227     -0.350581
O            -0.456250     -0.421319      0.398994
O             0.051725     -0.420630      0.348005
O             0.442845      0.419322     -0.394920
H            -0.490768     -0.162332      0.326934
H             0.372453      0.154531      0.376088
H             0.344243      0.352980      0.392034
data_nwchem_pspw

_audit_creation_date   Thu Sep 29 05:24:36 2022
_audit_creation_method    generated by PSPW module of NWChem


_cell_length_a            10.0667
_cell_length_b             9.1552
_cell_length_c             9.2041
_cell_angle_alpha         90.0000
_cell_angle_beta          90.0000
_cell_angle_gamma         90.0000

_symmetry_space_group_name_H-M     P1  

loop_
_atom_site_type_symbol
_atom_site_fract_x
_atom_site_fract_y
_atom_site_fract_z
Fe            0.120220     -0.246119      0.220347
Fe            0.353481     -0.098022     -0.025610
Fe           -0.150839     -0.083798     -0.214336
Fe           -0.355495     -0.259424      0.023267
H            -0.106858     -0.245127      0.045339
H            -0.389279     -0.063738     -0.209275
H             0.086599     -0.081639     -0.051947
H             0.348818     -0.263443      0.277059
O            -0.190724     -0.254751     -0.084942
O            -0.297751     -0.074637      0.170053
O             0.190624     -0.096419      0.089571
O             0.310122     -0.249428     -0.162831
O            -0.068605     -0.251851      0.143541
O            -0.429800     -0.080422     -0.111237
O             0.048799     -0.096572     -0.148438
O             0.453705     -0.230339      0.115831
Fe            0.147953      0.096437      0.225073
Fe            0.360709      0.265069     -0.021182
Fe           -0.143960      0.248501     -0.235553
Fe           -0.362948      0.092574      0.029094
H            -0.087120      0.091694      0.049006
H            -0.397036      0.262076     -0.193460
H             0.090750      0.265654     -0.052251
H             0.414349      0.063912      0.186880
O            -0.201472      0.093133     -0.093747
O            -0.302363      0.249609      0.156137
O             0.184486      0.256898      0.094803
O             0.303502      0.101395     -0.172412
O            -0.051790      0.092461      0.149268
O            -0.438323      0.263844     -0.096879
O             0.069379      0.265529     -0.154983
O             0.442132      0.084610      0.087087
Fe            0.139870      0.414873      0.223905
Fe            0.375071     -0.404789     -0.024341
Fe           -0.134474     -0.411811     -0.211147
Fe           -0.355315      0.420243      0.028800
H            -0.105192      0.413526      0.045457
H            -0.368550     -0.425442     -0.246938
H             0.109629     -0.418836     -0.041912
H             0.423251      0.388882      0.227990
O            -0.182735      0.415490     -0.085844
O            -0.300176     -0.401864      0.149938
O             0.192383     -0.414689      0.100336
O             0.308257      0.426956     -0.142372
O            -0.058307      0.426158      0.140297
O            -0.447407     -0.412290     -0.098648
O             0.067063     -0.408872     -0.142135
O             0.452773      0.403164      0.130988
Fe            0.141578     -0.252460     -0.279986
Fe            0.357855     -0.084056      0.460848
Fe           -0.126009     -0.089015      0.282946
Fe           -0.361036     -0.257487     -0.477623
H            -0.087807     -0.258896     -0.453308
H            -0.354276     -0.073746      0.256597
H             0.102628     -0.067566      0.460200
H             0.412031     -0.273540     -0.312363
O            -0.189398     -0.255012      0.412455
O            -0.314583     -0.086475     -0.350987
O             0.210092     -0.080037     -0.411483
O             0.281058     -0.268046      0.360723
O            -0.048755     -0.265964     -0.356196
O            -0.448324     -0.113751      0.369545
O             0.064913     -0.054634      0.361449
O             0.428407     -0.264510     -0.412875
Fe            0.135302      0.089782     -0.294204
H             0.444843     -0.014878     -0.338554
Fe           -0.143335      0.255882      0.285913
Fe           -0.351963      0.093119     -0.475258
H            -0.092637      0.084487     -0.454589
H            -0.388910      0.224975      0.281301
H             0.126811      0.253272      0.474143
H             0.365663      0.103723     -0.251547
O            -0.176830      0.073005      0.414899
O            -0.315730      0.255711     -0.349681
O             0.187472      0.249607     -0.425215
O             0.327912      0.092580      0.328296
O            -0.057128      0.077584     -0.348617
O            -0.428136      0.234081      0.379256
O             0.059120      0.257951      0.352836
O             0.456411      0.051896     -0.414739
Fe            0.148300      0.437306     -0.269065
Ni            0.355383     -0.442626      0.475007
Fe           -0.148217     -0.422587      0.284842
Fe           -0.387091      0.402825     -0.486241
H            -0.072465      0.432555     -0.440630
H            -0.433015     -0.424080      0.294834
H             0.106743     -0.409348      0.451583
H             0.432581      0.433148     -0.297918
O            -0.207421      0.420880      0.423620
O            -0.305958     -0.420760     -0.339327
O             0.191545     -0.419171     -0.405498
O             0.313875      0.393799      0.352525
O            -0.051689      0.439073     -0.339570
O            -0.462424     -0.421492      0.394902
O             0.063494     -0.425688      0.354011
O             0.437639      0.412107     -0.398641
H            -0.465468     -0.181668      0.293745
H             0.342301      0.185546      0.371084
H             0.282271      0.344577      0.442413
data_nwchem_pspw

_audit_creation_date   Thu Sep 29 08:26:21 2022
_audit_creation_method    generated by PSPW module of NWChem


_cell_length_a            10.0667
_cell_length_b             9.1552
_cell_length_c             9.2041
_cell_angle_alpha         90.0000
_cell_angle_beta          90.0000
_cell_angle_gamma         90.0000

_symmetry_space_group_name_H-M     P1  

loop_
_atom_site_type_symbol
_atom_site_fract_x
_atom_site_fract_y
_atom_site_fract_z
Fe            0.132406     -0.245893      0.207990
Fe            0.367792     -0.099744     -0.017976
Fe           -0.144186     -0.088668     -0.229739
Fe           -0.351264     -0.266343      0.005448
H            -0.072276     -0.241940      0.059555
H            -0.400409     -0.095494     -0.205194
H             0.083378     -0.078458     -0.059330
H             0.363004     -0.250848      0.278628
O            -0.189888     -0.243000     -0.100277
O            -0.312920     -0.081325      0.147576
O             0.189442     -0.088212      0.090167
O             0.320978     -0.258450     -0.158798
O            -0.052440     -0.256457      0.160091
O            -0.439938     -0.086301     -0.105382
O             0.055393     -0.084681     -0.160316
O             0.446919     -0.262749      0.116574
Fe            0.147358      0.085213      0.223512
Fe            0.351677      0.269111     -0.029838
Fe           -0.147608      0.255362     -0.210437
Fe           -0.357332      0.088114      0.008694
H            -0.094500      0.063573      0.044435
H            -0.419470      0.258965     -0.217618
H             0.075014      0.249328     -0.050273
H             0.423389      0.078355      0.177604
O            -0.190949      0.085668     -0.098268
O            -0.296977      0.246279      0.144416
O             0.191234      0.234010      0.098664
O             0.298743      0.095723     -0.165659
O            -0.056681      0.068150      0.141111
O            -0.438861      0.254059     -0.115610
O             0.048435      0.268081     -0.147965
O             0.446261      0.084755      0.076618
Fe            0.144662      0.409039      0.234453
Fe            0.366386     -0.409345     -0.022999
Fe           -0.146156     -0.419042     -0.227927
Fe           -0.363245      0.426048      0.025422
H            -0.081116      0.411370      0.036790
H            -0.393447     -0.420382     -0.241531
H             0.112122     -0.425246     -0.052149
H             0.416091      0.411815      0.213686
O            -0.194351      0.425653     -0.081826
O            -0.294938     -0.412243      0.153364
O             0.190189     -0.412934      0.096512
O             0.303305      0.423524     -0.161112
O            -0.043991      0.409966      0.136233
O            -0.442543     -0.428264     -0.107568
O             0.060858     -0.411974     -0.145868
O             0.445583      0.423354      0.110807
Fe            0.146769     -0.257434     -0.275910
Fe            0.346432     -0.078579      0.486892
Fe           -0.138962     -0.082129      0.292084
Fe           -0.360478     -0.239092     -0.470858
H            -0.096507     -0.254635     -0.461144
H            -0.378655     -0.079477      0.222626
H             0.094249     -0.088138      0.448534
H             0.424636     -0.242948     -0.283940
O            -0.196033     -0.251508      0.413468
O            -0.306443     -0.070823     -0.348093
O             0.183438     -0.088705     -0.407853
O             0.298246     -0.246378      0.361221
O            -0.059989     -0.240461     -0.362251
O            -0.454715     -0.107164      0.379317
O             0.058137     -0.063773      0.352463
O             0.441639     -0.242912     -0.385140
Fe            0.136325      0.083874     -0.282276
H             0.498895     -0.025144     -0.326254
Fe           -0.135970      0.249786      0.269215
Fe           -0.356408      0.103179     -0.467444
H            -0.093708      0.102955     -0.447621
H            -0.407684      0.264708      0.308301
H             0.134845      0.223783      0.490051
H             0.359888      0.111839     -0.249130
O            -0.193775      0.078593      0.408708
O            -0.307373      0.267867     -0.333631
O             0.194747      0.232044     -0.425084
O             0.331104      0.071096      0.321943
O            -0.062940      0.106288     -0.343858
O            -0.441730      0.237183      0.405650
O             0.058198      0.237560      0.350411
O             0.461495      0.052188     -0.381706
Fe            0.141692      0.416262     -0.282683
Ni            0.364057     -0.419131      0.491126
Fe           -0.145964     -0.429085      0.285059
Fe           -0.373509      0.413797     -0.476271
H            -0.073697      0.425354     -0.453951
H            -0.438000     -0.403446      0.292465
H             0.109828     -0.419316      0.454547
H             0.400564      0.389119     -0.308580
O            -0.195075      0.411600      0.407970
O            -0.319990     -0.414613     -0.345751
O             0.192348     -0.408532     -0.404109
O             0.311322      0.423140      0.350073
O            -0.059343      0.427272     -0.352355
O            -0.462309     -0.414620      0.392736
O             0.067992     -0.436057      0.359867
O             0.452466      0.437876     -0.379837
H            -0.485962     -0.160123      0.294130
H             0.373668      0.156117      0.358946
H             0.314338      0.336671      0.411775
data_nwchem_pspw

_audit_creation_date   Thu Sep 29 11:24:18 2022
_audit_creation_method    generated by PSPW module of NWChem


_cell_length_a            10.0667
_cell_length_b             9.1552
_cell_length_c             9.2041
_cell_angle_alpha         90.0000
_cell_angle_beta          90.0000
_cell_angle_gamma         90.0000

_symmetry_space_group_name_H-M     P1  

loop_
_atom_site_type_symbol
_atom_site_fract_x
_atom_site_fract_y
_atom_site_fract_z
Fe            0.148839     -0.240430      0.214035
Fe            0.353389     -0.079644     -0.005113
Fe           -0.147445     -0.100375     -0.229134
Fe           -0.367470     -0.243343      0.024825
H            -0.085487     -0.256300      0.060523
H            -0.412469     -0.090341     -0.194238
H             0.071571     -0.059406     -0.063264
H             0.382129     -0.259782      0.268370
O            -0.192394     -0.251162     -0.085312
O            -0.291226     -0.074583      0.151068
O             0.178939     -0.076250      0.089198
O             0.311744     -0.246482     -0.153916
O            -0.054081     -0.244757      0.158886
O            -0.439679     -0.076059     -0.095594
O             0.051340     -0.086242     -0.160043
O             0.443935     -0.240002      0.113681
Fe            0.127527      0.092654      0.228096
Fe            0.365638      0.260651     -0.014850
Fe           -0.144308      0.245372     -0.240377
Fe           -0.357002      0.093660      0.003558
H            -0.097763      0.062107      0.038718
H            -0.427812      0.268663     -0.208485
H             0.099794      0.250699     -0.049989
H             0.401927      0.093029      0.210635
O            -0.188275      0.077010     -0.099766
O            -0.309771      0.240609      0.158102
O             0.187331      0.241804      0.094415
O             0.299509      0.095385     -0.167036
O            -0.059718      0.076752      0.135486
O            -0.446609      0.260324     -0.102631
O             0.063779      0.264030     -0.150124
O             0.440459      0.092422      0.109698
Fe            0.133069      0.411578      0.218614
Fe            0.356446     -0.400438     -0.020850
Fe           -0.147871     -0.418432     -0.217232
Fe           -0.348655      0.417374      0.026266
H            -0.099873      0.424066      0.040805
H            -0.408323     -0.406835     -0.195363
H             0.075788     -0.405343     -0.044491
H             0.409273      0.413419      0.204882
O            -0.183380      0.398191     -0.102658
O            -0.300771     -0.406705      0.145414
O             0.186557     -0.405614      0.088501
O             0.310850      0.426055     -0.156651
O            -0.060147      0.424339      0.135951
O            -0.452010     -0.411573     -0.096808
O             0.045716     -0.420269     -0.142589
O             0.447981      0.427166      0.107503
Fe            0.150443     -0.260434     -0.269286
Fe            0.357257     -0.073547      0.487102
Fe           -0.129029     -0.085977      0.295110
Fe           -0.355261     -0.253886     -0.463065
H            -0.088255     -0.258687     -0.458233
H            -0.353261     -0.045083      0.226313
H             0.095249     -0.103272      0.461093
H             0.398718     -0.250271     -0.300385
O            -0.194294     -0.254473      0.405838
O            -0.317520     -0.075062     -0.346109
O             0.189485     -0.074133     -0.414428
O             0.321422     -0.256750      0.349791
O            -0.050028     -0.262008     -0.356751
O            -0.449093     -0.085853      0.395089
O             0.061514     -0.078463      0.360239
O             0.436973     -0.253238     -0.399479
Fe            0.136167      0.089973     -0.288309
H             0.478156     -0.026222     -0.311688
Fe           -0.138447      0.247370      0.272742
Fe           -0.360815      0.081413     -0.482196
H            -0.084486      0.088568     -0.462153
H            -0.400481      0.239451      0.299875
H             0.148236      0.254720      0.493318
H             0.365577      0.088539     -0.257585
O            -0.192087      0.086166      0.402287
O            -0.301753      0.249863     -0.353823
O             0.212936      0.245081     -0.435984
O             0.302309      0.080880      0.347500
O            -0.059525      0.078796     -0.357468
O            -0.449111      0.231809      0.392856
O             0.047389      0.244289      0.346658
O             0.453833      0.053447     -0.374537
Fe            0.148801      0.414683     -0.282468
Ni            0.370084     -0.421856      0.479615
Fe           -0.142059     -0.420668      0.283104
Fe           -0.370829      0.401657     -0.484327
H            -0.087612      0.411208     -0.452551
H            -0.410277     -0.435507      0.299659
H             0.098630     -0.429297      0.450716
H             0.407479      0.466584     -0.310779
O            -0.191807      0.407978      0.405178
O            -0.315883     -0.425344     -0.328661
O             0.193499     -0.418921     -0.408962
O             0.297368      0.421467      0.339563
O            -0.058927      0.412965     -0.350512
O            -0.443878     -0.426336      0.396173
O             0.056098     -0.419956      0.346845
O             0.455318      0.438394     -0.395945
H            -0.455349     -0.145423      0.311590
H             0.317673      0.160627      0.412675
H             0.331935      0.351777      0.407844
data_nwchem_pspw

_audit_creation_date   Thu Sep 29 14:28:15 2022
_audit_creation_method    generated by PSPW module of NWChem


_cell_length_a            10.0667
_cell_length_b             9.1552
_cell_length_c             9.2041
_cell_angle_alpha         90.0000
_cell_angle_beta          90.0000
_cell_angle_gamma         90.0000

_symmetry_space_group_name_H-M     P1  

loop_
_atom_site_type_symbol
_atom_site_fract_x
_atom_site_fract_y
_atom_site_fract_z
Fe            0.134713     -0.250467      0.217624
Fe            0.352132     -0.090568     -0.016548
Fe           -0.143082     -0.074133     -0.232490
Fe           -0.361367     -0.263530      0.025528
H            -0.093113     -0.243172      0.061520
H            -0.419776     -0.115988     -0.194471
H             0.079654     -0.083254     -0.068097
H             0.392169     -0.270804      0.201293
O            -0.187202     -0.241424     -0.090544
O            -0.311126     -0.086149      0.159225
O             0.183932     -0.083085      0.098349
O             0.306035     -0.251672     -0.156864
O            -0.068755     -0.256532      0.162577
O            -0.449606     -0.092953     -0.093029
O             0.055336     -0.078495     -0.169119
O             0.439381     -0.253824      0.109957
Fe            0.136495      0.085720      0.236079
Fe            0.348577      0.256924     -0.026405
Fe           -0.148266      0.268210     -0.231294
Fe           -0.350044      0.092312      0.025398
H            -0.080372      0.079244      0.042247
H            -0.422551      0.227015     -0.218178
H             0.079083      0.247076     -0.059241
H             0.409897      0.064968      0.194083
O            -0.190180      0.095309     -0.092223
O            -0.295747      0.244762      0.167155
O             0.164882      0.249810      0.079326
O             0.317571      0.094302     -0.172836
O            -0.054193      0.084552      0.147872
O            -0.440141      0.242626     -0.109102
O             0.054384      0.249531     -0.160609
O             0.437178      0.085388      0.092876
Fe            0.140678      0.423749      0.226638
Fe            0.355875     -0.426792     -0.037965
Fe           -0.136205     -0.407674     -0.216768
Fe           -0.350062      0.403155      0.037076
H            -0.093184      0.413476      0.052668
H            -0.401157     -0.441980     -0.189186
H             0.103080     -0.428658     -0.052278
H             0.395707      0.400563      0.215012
O            -0.195065      0.423109     -0.082472
O            -0.314396     -0.422117      0.149100
O             0.181906     -0.423779      0.075908
O             0.303271      0.416794     -0.166512
O            -0.061686      0.424591      0.147671
O            -0.437865     -0.432248     -0.087052
O             0.063268     -0.406182     -0.156678
O             0.442039      0.400342      0.111453
Fe            0.147474     -0.247810     -0.282538
Fe            0.356520     -0.098167      0.473191
Fe           -0.131456     -0.073573      0.278182
Fe           -0.346734     -0.253506     -0.461292
H            -0.086117     -0.253267     -0.454673
H            -0.364060     -0.079805      0.252330
H             0.083123     -0.060377      0.458102
H             0.424179     -0.283815     -0.314124
O            -0.187192     -0.249096      0.411073
O            -0.300749     -0.086633     -0.339349
O             0.193181     -0.077249     -0.408028
O             0.299464     -0.274510      0.336829
O            -0.056185     -0.245937     -0.351864
O            -0.436109     -0.118650      0.385405
O             0.054935     -0.074383      0.359085
O             0.450805     -0.261377     -0.413719
Fe            0.148090      0.094023     -0.298820
H            -0.494490     -0.023222     -0.319827
Fe           -0.134632      0.256597      0.299409
Fe           -0.361632      0.093330     -0.477688
H            -0.095920      0.087654     -0.456451
H            -0.406244      0.262389      0.310671
H             0.131204      0.248098      0.497477
H             0.382734      0.105408     -0.255791
O            -0.201805      0.088442      0.412665
O            -0.309510      0.255405     -0.347310
O             0.192309      0.265304     -0.420910
O             0.329961      0.080652      0.338072
O            -0.046184      0.082492     -0.364882
O            -0.453223      0.251942      0.405070
O             0.050381      0.247125      0.348685
O             0.459977      0.042879     -0.382283
Fe            0.133598      0.425645     -0.285837
Ni            0.367253     -0.424034      0.468069
Fe           -0.150736     -0.420389      0.282491
Fe           -0.368552      0.425056     -0.467429
H            -0.090862      0.408457     -0.466362
H            -0.399837     -0.425966      0.283086
H             0.112510     -0.440566      0.457117
H             0.410017      0.434007     -0.295674
O            -0.204202      0.420841      0.414619
O            -0.303865     -0.413558     -0.319277
O             0.186400     -0.415940     -0.411038
O             0.303866      0.420557      0.346894
O            -0.061877      0.408341     -0.362190
O            -0.441797     -0.423521      0.381724
O             0.063568     -0.431357      0.359029
O             0.453324      0.440309     -0.389495
H            -0.460135     -0.214083      0.346031
H             0.388505      0.151496      0.386251
H             0.309701      0.333708      0.406039
data_nwchem_pspw

_audit_creation_date   Thu Sep 29 17:28:06 2022
_audit_creation_method    generated by PSPW module of NWChem


_cell_length_a            10.0667
_cell_length_b             9.1552
_cell_length_c             9.2041
_cell_angle_alpha         90.0000
_cell_angle_beta          90.0000
_cell_angle_gamma         90.0000

_symmetry_space_group_name_H-M     P1  

loop_
_atom_site_type_symbol
_atom_site_fract_x
_atom_site_fract_y
_atom_site_fract_z
Fe            0.167139     -0.237144      0.210470
Fe            0.369505     -0.092316     -0.024798
Fe           -0.151444     -0.085666     -0.222514
Fe           -0.349591     -0.260230      0.013694
H            -0.065325     -0.249117      0.068013
H            -0.411809     -0.089249     -0.230174
H             0.069858     -0.043854     -0.043138
H             0.430932     -0.233957      0.203222
O            -0.187456     -0.249924     -0.085269
O            -0.310388     -0.106630      0.161795
O             0.203748     -0.074523      0.091888
O             0.313584     -0.253595     -0.158559
O            -0.041926     -0.244607      0.166658
O            -0.433579     -0.092804     -0.117577
O             0.054814     -0.069525     -0.141179
O             0.449778     -0.260103      0.103264
Fe            0.142576      0.110108      0.235634
Fe            0.358155      0.255732     -0.028583
Fe           -0.152020      0.257430     -0.224955
Fe           -0.346252      0.076748      0.024175
H            -0.095730      0.079189      0.040471
H            -0.419126      0.264850     -0.196670
H             0.082081      0.251891     -0.056608
H             0.402762      0.085105      0.196342
O            -0.183658      0.075630     -0.103189
O            -0.295328      0.234136      0.152499
O             0.206216      0.252871      0.087160
O             0.296668      0.076312     -0.161798
O            -0.055677      0.084091      0.134517
O            -0.442518      0.236584     -0.097149
O             0.054256      0.253016     -0.159324
O             0.453301      0.076692      0.104679
Fe            0.142831      0.418423      0.224778
Fe            0.352278     -0.415522     -0.024652
Fe           -0.148219     -0.416291     -0.233383
Fe           -0.356951      0.419268      0.033214
H            -0.089007      0.420889      0.036668
H            -0.402522     -0.438379     -0.199328
H             0.083687     -0.419266     -0.043079
H             0.399491      0.410157      0.227254
O            -0.191199      0.427712     -0.093897
O            -0.301683     -0.421134      0.160752
O             0.193784     -0.413586      0.098428
O             0.320571      0.413587     -0.170971
O            -0.055187      0.417401      0.136711
O            -0.445111     -0.422732     -0.099601
O             0.043514     -0.406800     -0.146507
O             0.448513      0.419988      0.123245
Fe            0.136975     -0.253170     -0.257805
Fe            0.345928     -0.114628      0.491818
Fe           -0.129481     -0.073455      0.285489
Fe           -0.356342     -0.245780     -0.477802
H            -0.089372     -0.232572     -0.448589
H            -0.370631     -0.102295      0.246693
H             0.096517     -0.088342      0.445964
H             0.419899     -0.241464     -0.290675
O            -0.192812     -0.243220      0.406328
O            -0.305183     -0.074073     -0.356433
O             0.182154     -0.080858     -0.407006
O             0.295968     -0.271017      0.359536
O            -0.051287     -0.247814     -0.353236
O            -0.460945     -0.087676      0.385153
O             0.066034     -0.070327      0.344332
O             0.451802     -0.258171     -0.391597
Fe            0.125193      0.081440     -0.287939
H             0.368874      0.049756     -0.254071
Fe           -0.141783      0.257425      0.264724
Fe           -0.361263      0.089573     -0.475395
H            -0.104012      0.073294     -0.442342
H            -0.417446      0.216922      0.305677
H             0.158705      0.232274      0.496040
H             0.406684      0.141115     -0.391626
O            -0.198411      0.082970      0.402262
O            -0.317445      0.239860     -0.342427
O             0.214204      0.236168     -0.413027
O             0.321845      0.064275      0.340735
O            -0.063092      0.101840     -0.352470
O            -0.466516      0.232450      0.396989
O             0.055087      0.259544      0.350766
O             0.441739      0.041363     -0.371429
Fe            0.139296      0.418901     -0.283243
Ni            0.362717     -0.416437      0.491993
Fe           -0.144141     -0.406042      0.282887
Fe           -0.373102      0.412793     -0.483699
H            -0.090530      0.405527     -0.457128
H            -0.445093     -0.405276      0.286937
H             0.092121     -0.420596      0.450850
H             0.400049      0.405747     -0.326384
O            -0.209446      0.417114      0.400216
O            -0.319953     -0.427375     -0.341955
O             0.188993     -0.414141     -0.391351
O             0.308612      0.434294      0.341240
O            -0.061870      0.407545     -0.357894
O            -0.453664     -0.400462      0.391514
O             0.059444     -0.415758      0.348151
O             0.447940      0.426641     -0.415928
H             0.480534     -0.024783      0.331500
H             0.380877      0.125734      0.398089
H             0.315094      0.355041      0.409313
data_nwchem_pspw

_audit_creation_date   Thu Sep 29 20:27:54 2022
_audit_creation_method    generated by PSPW module of NWChem


_cell_length_a            10.0667
_cell_length_b             9.1552
_cell_length_c             9.2041
_cell_angle_alpha         90.0000
_cell_angle_beta          90.0000
_cell_angle_gamma         90.0000

_symmetry_space_group_name_H-M     P1  

loop_
_atom_site_type_symbol
_atom_site_fract_x
_atom_site_fract_y
_atom_site_fract_z
Fe            0.144634     -0.247067      0.216122
Fe            0.351476     -0.081790     -0.028690
Fe           -0.156133     -0.078028     -0.231650
Fe           -0.358958     -0.259434      0.035221
H            -0.100667     -0.261017      0.042519
H            -0.422829     -0.087836     -0.206427
H             0.090510     -0.062582     -0.040095
H             0.400769     -0.251137      0.210686
O            -0.205655     -0.236179     -0.094299
O            -0.310347     -0.091262      0.163704
O             0.187399     -0.080434      0.097554
O             0.332323     -0.242346     -0.169297
O            -0.054688     -0.263096      0.141455
O            -0.448496     -0.077769     -0.101864
O             0.050770     -0.075815     -0.135920
O             0.443708     -0.253042      0.109999
Fe            0.119122      0.087147      0.212752
Fe            0.346077      0.248584     -0.028946
Fe           -0.128527      0.252179     -0.226444
Fe           -0.362726      0.080538      0.027312
H            -0.111343      0.092908      0.040324
H            -0.437699      0.248651     -0.199138
H             0.100507      0.264425     -0.041589
H             0.402040      0.099812      0.195502
O            -0.190617      0.084183     -0.087315
O            -0.311580      0.240983      0.165220
O             0.180541      0.239478      0.094204
O             0.317552      0.078725     -0.168513
O            -0.070365      0.078664      0.142325
O            -0.459148      0.237694     -0.098317
O             0.074380      0.270267     -0.150074
O             0.439437      0.091231      0.099666
Fe            0.150741      0.407098      0.224401
Fe            0.358238     -0.417405     -0.026202
Fe           -0.137684     -0.423746     -0.210003
Fe           -0.350426      0.409915      0.021873
H            -0.067942      0.408095      0.051811
H            -0.403653     -0.398310     -0.195178
H             0.091751     -0.416054     -0.042895
H             0.411353      0.424881      0.199043
O            -0.197617      0.414484     -0.101652
O            -0.295655     -0.428449      0.154806
O             0.192961     -0.418505      0.092075
O             0.313595      0.410209     -0.146504
O            -0.058203      0.400936      0.158076
O            -0.432836     -0.421649     -0.098947
O             0.056946     -0.395913     -0.140996
O             0.455037      0.410451      0.102158
Fe            0.148898     -0.241222     -0.265116
Fe            0.349528     -0.103882      0.456110
Fe           -0.132759     -0.091128      0.286888
Fe           -0.356197     -0.256520     -0.460444
H            -0.093663     -0.244086     -0.449025
H            -0.371279     -0.096505      0.252056
H             0.090012     -0.059669      0.441727
H             0.424570     -0.234244     -0.300913
O            -0.193819     -0.241645      0.412053
O            -0.321499     -0.075156     -0.332872
O             0.193680     -0.089657     -0.412938
O             0.313060     -0.259460      0.331916
O            -0.059515     -0.241347     -0.343411
O            -0.466531     -0.058661      0.382523
O             0.057683     -0.083471      0.350443
O             0.447139     -0.232073     -0.407478
Fe            0.157744      0.078859     -0.288826
H             0.407587      0.088565     -0.296485
Fe           -0.150995      0.248532      0.297316
Fe           -0.360309      0.091415     -0.469321
H            -0.089633      0.093630     -0.456882
H            -0.403085      0.254459      0.291573
H             0.124842      0.252676      0.487582
H             0.403757      0.184482     -0.439360
O            -0.188312      0.075306      0.419503
O            -0.297592      0.246787     -0.347349
O             0.191153      0.253947     -0.421482
O             0.291452      0.089404      0.341594
O            -0.051352      0.084683     -0.355718
O            -0.447525      0.252482      0.386125
O             0.054467      0.233267      0.362820
O             0.432122      0.087804     -0.402524
Fe            0.147229      0.432044     -0.288399
Ni            0.366617     -0.415442      0.475711
Fe           -0.138815     -0.417779      0.277338
Fe           -0.370446      0.412982     -0.475052
H            -0.098993      0.435105     -0.442529
H            -0.393415     -0.401868      0.296938
H             0.107134     -0.423897      0.444790
H             0.430712      0.449472     -0.300533
O            -0.195908      0.422149      0.416803
O            -0.291413     -0.421782     -0.350769
O             0.195140     -0.402551     -0.411187
O             0.314397      0.424187      0.343801
O            -0.054923      0.436129     -0.345049
O            -0.439117     -0.392098      0.393781
O             0.064963     -0.420955      0.345425
O             0.452550      0.431040     -0.401260
H            -0.487341      0.026158      0.327381
H             0.263198      0.152562      0.422599
H             0.343441      0.328124      0.360344
data_nwchem_pspw

_audit_creation_date   Thu Sep 29 23:24:39 2022
_audit_creation_method    generated by PSPW module of NWChem


_cell_length_a            10.0667
_cell_length_b             9.1552
_cell_length_c             9.2041
_cell_angle_alpha         90.0000
_cell_angle_beta          90.0000
_cell_angle_gamma         90.0000

_symmetry_space_group_name_H-M     P1  

loop_
_atom_site_type_symbol
_atom_site_fract_x
_atom_site_fract_y
_atom_site_fract_z
Fe            0.135324     -0.252672      0.228075
Fe            0.349987     -0.088527     -0.025548
Fe           -0.149797     -0.101646     -0.235665
Fe           -0.363015     -0.265903      0.027544
H            -0.084884     -0.239664      0.044154
H            -0.427186     -0.082896     -0.214371
H             0.094229     -0.098004     -0.041721
H             0.386059     -0.263928      0.254017
O            -0.200858     -0.255323     -0.096715
O            -0.314814     -0.079179      0.155226
O             0.188036     -0.073916      0.096924
O             0.302142     -0.254210     -0.147538
O            -0.059379     -0.229171      0.147557
O            -0.455722     -0.073805     -0.114146
O             0.058158     -0.093068     -0.144775
O             0.455775     -0.258609      0.099884
Fe            0.137592      0.101267      0.223652
Fe            0.352463      0.267652     -0.020429
Fe           -0.131858      0.251920     -0.231902
Fe           -0.351874      0.084437     -0.000256
H            -0.068086      0.104440      0.057505
H            -0.395981      0.251618     -0.200318
H             0.093433      0.287450     -0.055986
H             0.407006      0.088194      0.184635
O            -0.176341      0.074589     -0.096610
O            -0.300545      0.251116      0.150147
O             0.180697      0.260999      0.094963
O             0.312853      0.080175     -0.167687
O            -0.062243      0.087335      0.159278
O            -0.452563      0.241855     -0.111782
O             0.071055      0.266924     -0.157945
O             0.441820      0.089403      0.085274
Fe            0.126370      0.425886      0.242029
Fe            0.360477     -0.417300     -0.010883
Fe           -0.144027     -0.421849     -0.219982
Fe           -0.360447      0.411128      0.023884
H            -0.097615      0.415833      0.048744
H            -0.413766     -0.410189     -0.217860
H             0.073832     -0.432015     -0.050393
H             0.396615      0.419427      0.224806
O            -0.193711      0.398246     -0.089832
O            -0.298078     -0.426535      0.152381
O             0.185782     -0.414431      0.105363
O             0.296475      0.420928     -0.144581
O            -0.057974      0.424288      0.144029
O            -0.445682     -0.412147     -0.115907
O             0.045073     -0.416224     -0.148658
O             0.442149      0.427590      0.121374
Fe            0.150564     -0.248359     -0.264515
Fe            0.356100     -0.076511      0.478381
Fe           -0.150670     -0.082367      0.277373
Fe           -0.347979     -0.270593     -0.491366
H            -0.083239     -0.247522     -0.448350
H            -0.387842     -0.086165      0.228403
H             0.108064     -0.076019      0.437951
H             0.422832     -0.260165     -0.299790
O            -0.201806     -0.252316      0.393758
O            -0.307702     -0.090507     -0.359553
O             0.189975     -0.087468     -0.415405
O             0.325177     -0.250671      0.336549
O            -0.051375     -0.254029     -0.355178
O            -0.451270     -0.066368      0.388262
O             0.053859     -0.081812      0.348682
O             0.444875     -0.248855     -0.397105
Fe            0.135651      0.083432     -0.272354
H             0.378995      0.071617     -0.247740
Fe           -0.137467      0.250037      0.279778
Fe           -0.361712      0.087477     -0.473754
H            -0.090639      0.089249     -0.451948
H            -0.409306      0.257567      0.290123
H             0.143749      0.237913      0.491790
H             0.386810      0.173612     -0.415372
O            -0.185640      0.079909      0.412799
O            -0.305552      0.242889     -0.332115
O             0.202549      0.244471     -0.412580
O             0.316652      0.100764      0.336587
O            -0.057180      0.079165     -0.347999
O            -0.448096      0.237524      0.383724
O             0.056849      0.263023      0.368758
O             0.442491      0.091031     -0.396126
Fe            0.146773      0.416491     -0.289804
Ni            0.383344     -0.407652      0.488967
Fe           -0.144565     -0.422388      0.281332
Fe           -0.364966      0.405285     -0.474870
H            -0.089678      0.427767     -0.448928
H            -0.410997     -0.427217      0.290054
H             0.144820     -0.420911     -0.498379
H             0.438853      0.410089     -0.298939
O            -0.186846      0.405618      0.416834
O            -0.299951     -0.416079     -0.349789
O             0.204335     -0.413050     -0.407642
O             0.310417      0.430710      0.349373
O            -0.049636      0.411265     -0.350013
O            -0.444637     -0.419333      0.386059
O             0.058772     -0.411728      0.363162
O             0.453633      0.429255     -0.400376
H            -0.486614      0.008960      0.327070
H             0.375615      0.173727      0.377857
H             0.292135      0.359061      0.420391
data_nwchem_pspw

_audit_creation_date   Fri Sep 30 02:24:15 2022
_audit_creation_method    generated by PSPW module of NWChem


_cell_length_a            10.0667
_cell_length_b             9.1552
_cell_length_c             9.2041
_cell_angle_alpha         90.0000
_cell_angle_beta          90.0000
_cell_angle_gamma         90.0000

_symmetry_space_group_name_H-M     P1  

loop_
_atom_site_type_symbol
_atom_site_fract_x
_atom_site_fract_y
_atom_site_fract_z
Fe            0.153512     -0.255628      0.205773
Fe            0.360752     -0.088249     -0.025250
Fe           -0.142528     -0.085834     -0.234525
Fe           -0.370199     -0.264324      0.031979
H            -0.107066     -0.256746      0.042792
H            -0.403840     -0.098033     -0.203979
H             0.078900     -0.071366     -0.032888
H             0.378784     -0.261528      0.253456
O            -0.207855     -0.243005     -0.096376
O            -0.308659     -0.079840      0.170994
O             0.187614     -0.076470      0.091100
O             0.299576     -0.252619     -0.157574
O            -0.075628     -0.259800      0.142141
O            -0.449173     -0.071606     -0.114016
O             0.047177     -0.063804     -0.135557
O             0.443067     -0.248413      0.092587
Fe            0.144597      0.087935      0.226064
Fe            0.357565      0.253690     -0.028355
Fe           -0.155711      0.246223     -0.218990
Fe           -0.367046      0.089478      0.029531
H            -0.092072      0.084837      0.044536
H            -0.409579      0.238672     -0.193875
H             0.087315      0.273995     -0.048741
H             0.395861      0.065672      0.188494
O            -0.203723      0.079168     -0.090669
O            -0.301503      0.252753      0.149439
O             0.198947      0.245765      0.106269
O             0.301333      0.084531     -0.148294
O            -0.053689      0.081154      0.141370
O            -0.446013      0.254739     -0.095470
O             0.043784      0.262764     -0.143573
O             0.448394      0.076511      0.106662
Fe            0.145452      0.410107      0.228629
Fe            0.351811     -0.412094     -0.030142
Fe           -0.145123     -0.414888     -0.233054
Fe           -0.348000      0.417318      0.026390
H            -0.072776      0.425512      0.035682
H            -0.447004     -0.411964     -0.208680
H             0.089904     -0.415662     -0.051574
H             0.429472      0.411420      0.209294
O            -0.190070      0.423957     -0.097517
O            -0.306514     -0.420400      0.167965
O             0.180654     -0.417307      0.090365
O             0.294883      0.415230     -0.149042
O            -0.052294      0.414107      0.141127
O            -0.448139     -0.430777     -0.103758
O             0.042414     -0.399857     -0.150484
O             0.444533      0.412682      0.106602
Fe            0.142334     -0.253977     -0.277389
Fe            0.356082     -0.080067      0.487623
Fe           -0.125569     -0.086613      0.289277
Fe           -0.354520     -0.241332     -0.472802
H            -0.109635     -0.256837     -0.457411
H            -0.369727     -0.096504      0.248258
H             0.077339     -0.084316      0.464299
H             0.426515     -0.255852     -0.297611
O            -0.183315     -0.256346      0.399241
O            -0.305829     -0.077744     -0.352363
O             0.199530     -0.077182     -0.386640
O             0.311296     -0.246595      0.330104
O            -0.056075     -0.243355     -0.362745
O            -0.465668     -0.063518      0.388324
O             0.061648     -0.074664      0.361354
O             0.453877     -0.235355     -0.395604
Fe            0.133173      0.080224     -0.263633
H             0.370239      0.087611     -0.250010
Fe           -0.130674      0.242987      0.271354
Fe           -0.353168      0.100525     -0.490583
H            -0.062463      0.111148     -0.456580
H            -0.396237      0.262347      0.279812
H             0.124356      0.230250     -0.480845
H             0.420922      0.177967     -0.427450
O            -0.184559      0.073943      0.401730
O            -0.308697      0.254350     -0.346067
O             0.190159      0.235765     -0.403460
O             0.325232      0.088998      0.337698
O            -0.051625      0.100245     -0.353571
O            -0.440400      0.248088      0.378244
O             0.063740      0.243970      0.349416
O             0.446373      0.090761     -0.379299
Fe            0.134849      0.414894     -0.279035
Ni            0.371285     -0.432027      0.481688
Fe           -0.142864     -0.425256      0.282578
Fe           -0.366265      0.420600     -0.488349
H            -0.091490      0.396602     -0.458575
H            -0.401186     -0.395961      0.292610
H             0.091758     -0.432853      0.456735
H             0.414020      0.434192     -0.292650
O            -0.196250      0.409614      0.406456
O            -0.301452     -0.423284     -0.357835
O             0.198128     -0.424151     -0.403810
O             0.311032      0.405923      0.367540
O            -0.055405      0.404793     -0.356933
O            -0.448370     -0.397410      0.390186
O             0.052302     -0.434789      0.356174
O             0.461198      0.443915     -0.380595
H            -0.478530      0.019018      0.324052
H             0.367316      0.180652      0.362132
H             0.269603      0.347672      0.438772
data_nwchem_pspw

_audit_creation_date   Fri Sep 30 05:23:20 2022
_audit_creation_method    generated by PSPW module of NWChem


_cell_length_a            10.0667
_cell_length_b             9.1552
_cell_length_c             9.2041
_cell_angle_alpha         90.0000
_cell_angle_beta          90.0000
_cell_angle_gamma         90.0000

_symmetry_space_group_name_H-M     P1  

loop_
_atom_site_type_symbol
_atom_site_fract_x
_atom_site_fract_y
_atom_site_fract_z
Fe            0.148865     -0.256906      0.220364
Fe            0.361253     -0.085609     -0.020752
Fe           -0.143460     -0.083404     -0.222171
Fe           -0.365640     -0.257453     -0.000839
H            -0.094617     -0.276808      0.044498
H            -0.418920     -0.074896     -0.202740
H             0.085705     -0.085053     -0.050549
H             0.379463     -0.268797      0.270058
O            -0.190503     -0.255490     -0.091981
O            -0.317098     -0.092762      0.161325
O             0.187756     -0.082967      0.103684
O             0.285282     -0.249544     -0.150054
O            -0.056095     -0.266930      0.138217
O            -0.450177     -0.068564     -0.101886
O             0.046920     -0.091877     -0.149061
O             0.446772     -0.248387      0.085054
Fe            0.130834      0.088586      0.227936
Fe            0.366869      0.269569     -0.030898
Fe           -0.133882      0.254843     -0.211251
Fe           -0.347481      0.082056      0.032476
H            -0.110703      0.062996      0.058489
H            -0.403252      0.243632     -0.202034
H             0.098050      0.228787     -0.056805
H             0.407892      0.087848      0.181921
O            -0.184973      0.077401     -0.076635
O            -0.296636      0.247721      0.163797
O             0.192428      0.247242      0.098956
O             0.303110      0.076928     -0.168971
O            -0.070174      0.062241      0.153328
O            -0.432947      0.253064     -0.099526
O             0.075541      0.255363     -0.154658
O             0.446198      0.092144      0.088036
Fe            0.136518      0.413987      0.225500
Fe            0.347749     -0.410716     -0.025160
Fe           -0.141489     -0.404549     -0.233271
Fe           -0.351638      0.421895      0.034540
H            -0.087598      0.461385      0.056977
H            -0.399842     -0.417499     -0.230945
H             0.080383     -0.401901     -0.054982
H             0.407258      0.427680      0.207313
O            -0.196712      0.416860     -0.095489
O            -0.307879     -0.416824      0.156720
O             0.181953     -0.425261      0.094517
O             0.303195      0.424035     -0.147576
O            -0.068803      0.432172      0.152997
O            -0.445906     -0.409721     -0.131865
O             0.056511     -0.424810     -0.151557
O             0.453131      0.434639      0.095200
Fe            0.142787     -0.268579     -0.295843
Fe            0.363243     -0.063084      0.491020
Fe           -0.149083     -0.087591      0.280797
Fe           -0.362345     -0.249712     -0.487540
H            -0.107081     -0.245711     -0.454154
H            -0.384799     -0.117683      0.229668
H             0.075150     -0.079180      0.455545
H             0.426348     -0.260316     -0.303323
O            -0.196234     -0.232057      0.405745
O            -0.299907     -0.093206     -0.356710
O             0.195876     -0.096058     -0.409089
O             0.316651     -0.259296      0.348336
O            -0.053626     -0.244236     -0.361914
O            -0.457787     -0.075164      0.390754
O             0.062623     -0.084694      0.349748
O             0.442004     -0.244328     -0.399760
Fe            0.139206      0.068715     -0.288177
H             0.369922      0.090060     -0.244704
Fe           -0.131751      0.243873      0.280899
Fe           -0.354692      0.094082     -0.442040
H            -0.108336      0.099294     -0.452177
H            -0.387226      0.235466      0.315464
H             0.117179      0.245328      0.497137
H             0.428651      0.173291     -0.438575
O            -0.191661      0.082873      0.414073
O            -0.298209      0.265141     -0.332695
O             0.182112      0.236334     -0.420533
O             0.306094      0.086262      0.344922
O            -0.065272      0.094165     -0.353608
O            -0.430030      0.231389      0.413734
O             0.052551      0.257467      0.345785
O             0.449844      0.097616     -0.369799
Fe            0.147805      0.413216     -0.274663
Ni            0.347587     -0.433015      0.484675
Fe           -0.147623     -0.410935      0.282566
Fe           -0.369044      0.413060     -0.488735
H            -0.101037      0.400885     -0.450708
H            -0.399357     -0.409698      0.297881
H             0.097194     -0.427104      0.456028
H             0.445930      0.438704     -0.295621
O            -0.194376      0.431135      0.419751
O            -0.297776     -0.427545     -0.352562
O             0.194787     -0.436919     -0.421442
O             0.334360      0.406052      0.317492
O            -0.054712      0.412843     -0.350203
O            -0.451603     -0.408659      0.390486
O             0.054102     -0.421267      0.357591
O             0.453219      0.428885     -0.399435
H            -0.432722      0.012003      0.342622
H             0.287218      0.173534      0.397568
H             0.374039      0.329823      0.374163
data_nwchem_pspw

_audit_creation_date   Fri Sep 30 08:24:46 2022
_audit_creation_method    generated by PSPW module of NWChem


_cell_length_a            10.0667
_cell_length_b             9.1552
_cell_length_c             9.2041
_cell_angle_alpha         90.0000
_cell_angle_beta          90.0000
_cell_angle_gamma         90.0000

_symmetry_space_group_name_H-M     P1  

loop_
_atom_site_type_symbol
_atom_site_fract_x
_atom_site_fract_y
_atom_site_fract_z
Fe            0.137495     -0.247360      0.208193
Fe            0.361490     -0.098597     -0.021504
Fe           -0.145583     -0.080446     -0.242445
Fe           -0.360455     -0.253196      0.008061
H            -0.101507     -0.213183      0.037307
H            -0.411043     -0.094866     -0.212892
H             0.079376     -0.099157     -0.061014
H             0.366883     -0.245314      0.248929
O            -0.201093     -0.238589     -0.105386
O            -0.313471     -0.084258      0.163536
O             0.195415     -0.070370      0.090737
O             0.318856     -0.251287     -0.170317
O            -0.061859     -0.235765      0.132821
O            -0.444019     -0.085156     -0.109708
O             0.053832     -0.079479     -0.159339
O             0.451272     -0.266652      0.100294
Fe            0.147384      0.083813      0.220287
Fe            0.362758      0.263202     -0.018564
Fe           -0.145415      0.251612     -0.219863
Fe           -0.356467      0.082031      0.024036
H            -0.092239      0.106858      0.055670
H            -0.409772      0.251382     -0.204323
H             0.104692      0.264778     -0.053629
H             0.415687      0.100638      0.200963
O            -0.185517      0.082002     -0.078120
O            -0.306929      0.246162      0.154063
O             0.198730      0.245185      0.102593
O             0.305428      0.070204     -0.148387
O            -0.056662      0.091569      0.154705
O            -0.443043      0.237599     -0.103883
O             0.074490      0.257818     -0.154777
O             0.435424      0.083487      0.105350
Fe            0.145788      0.423123      0.221210
Fe            0.363406     -0.415965     -0.016015
Fe           -0.149662     -0.418577     -0.223167
Fe           -0.357522      0.415153      0.047080
H            -0.097845      0.417815      0.042961
H            -0.428491     -0.425390     -0.206759
H             0.104111     -0.401750     -0.068214
H             0.400567      0.416690      0.212173
O            -0.207066      0.419228     -0.099654
O            -0.309826     -0.411012      0.153261
O             0.196937     -0.421073      0.100622
O             0.313774      0.420283     -0.138015
O            -0.059221      0.417480      0.140187
O            -0.455608     -0.431819     -0.105437
O             0.058340     -0.418415     -0.161037
O             0.447185      0.411851      0.120080
Fe            0.142732     -0.262701     -0.280139
Fe            0.347412     -0.087036      0.499888
Fe           -0.147703     -0.080701      0.284210
Fe           -0.360624     -0.249170     -0.488573
H            -0.080763     -0.264250     -0.445514
H            -0.367029     -0.103040      0.250160
H             0.082378     -0.068590      0.446852
H             0.412663     -0.261928     -0.301216
O            -0.202508     -0.248278      0.388613
O            -0.313724     -0.086204     -0.358401
O             0.184491     -0.080395     -0.410066
O             0.304634     -0.220401      0.329614
O            -0.047798     -0.259088     -0.351504
O            -0.456573     -0.089874      0.378148
O             0.045004     -0.076524      0.349111
O             0.442727     -0.266307     -0.399249
Fe            0.142423      0.091039     -0.273843
H             0.375369      0.091230     -0.220264
Fe           -0.147344      0.250288      0.280868
Fe           -0.349175      0.101474     -0.470179
H            -0.092882      0.080755     -0.449337
H            -0.402871      0.234067      0.302501
H             0.082575      0.253157      0.447645
H             0.422580      0.158525     -0.407332
O            -0.195087      0.080960      0.407399
O            -0.298519      0.259274     -0.338139
O             0.194181      0.242597     -0.413195
O             0.286680      0.081007      0.375446
O            -0.051283      0.081128     -0.350025
O            -0.452683      0.242128      0.393827
O             0.066941      0.245204      0.342398
O             0.477696      0.086197     -0.364746
Fe            0.154478      0.413396     -0.285634
Ni            0.371610     -0.428048      0.480513
Fe           -0.137667     -0.429740      0.281609
Fe           -0.370784      0.431242     -0.476692
H            -0.070247      0.390225     -0.454568
H            -0.423502     -0.421284      0.286099
H             0.102510     -0.415652      0.449393
H             0.417706      0.428449     -0.286873
O            -0.195568      0.418943      0.411078
O            -0.316225     -0.413211     -0.347505
O             0.195125     -0.417217     -0.423951
O             0.305157      0.428113      0.340134
O            -0.045107      0.417304     -0.354899
O            -0.451786     -0.418697      0.390714
O             0.061020     -0.413750      0.347563
O             0.444096      0.411122     -0.385091
H             0.478736     -0.114929      0.306579
H             0.264228      0.155525      0.446427
H             0.319071      0.353297      0.407328
data_nwchem_pspw

_audit_creation_date   Fri Sep 30 11:23:38 2022
_audit_creation_method    generated by PSPW module of NWChem


_cell_length_a            10.0667
_cell_length_b             9.1552
_cell_length_c             9.2041
_cell_angle_alpha         90.0000
_cell_angle_beta          90.0000
_cell_angle_gamma         90.0000

_symmetry_space_group_name_H-M     P1  

loop_
_atom_site_type_symbol
_atom_site_fract_x
_atom_site_fract_y
_atom_site_fract_z
Fe            0.139587     -0.269736      0.205465
Fe            0.358213     -0.086870     -0.024957
Fe           -0.150798     -0.083928     -0.234238
Fe           -0.365020     -0.242240      0.028913
H            -0.107442     -0.233870      0.061605
H            -0.411653     -0.064694     -0.202486
H             0.091085     -0.071749     -0.045492
H             0.362622     -0.278547      0.256334
O            -0.192840     -0.235363     -0.086901
O            -0.306126     -0.061653      0.168115
O             0.190875     -0.080298      0.104460
O             0.310963     -0.248138     -0.162745
O            -0.066559     -0.255619      0.156104
O            -0.441991     -0.072235     -0.101395
O             0.052378     -0.076479     -0.140750
O             0.448061     -0.241356      0.106096
Fe            0.134978      0.088620      0.237553
Fe            0.361171      0.260415     -0.026824
Fe           -0.137501      0.250594     -0.230821
Fe           -0.350363      0.090986      0.003895
H            -0.101123      0.054906      0.057307
H            -0.417910      0.259230     -0.200209
H             0.081095      0.246574     -0.052016
H             0.409553      0.078852      0.195692
O            -0.200188      0.094058     -0.116029
O            -0.294665      0.243997      0.161586
O             0.176292      0.253304      0.089810
O             0.305065      0.081593     -0.160929
O            -0.070935      0.074826      0.158302
O            -0.456989      0.241918     -0.105041
O             0.052152      0.251923     -0.154871
O             0.440249      0.087418      0.091898
Fe            0.145497      0.415380      0.238072
Fe            0.370735     -0.409381     -0.026930
Fe           -0.142735     -0.415350     -0.216592
Fe           -0.352005      0.427619      0.037937
H            -0.078113      0.433089      0.048613
H            -0.396680     -0.426850     -0.206024
H             0.090627     -0.419941     -0.049189
H             0.414074      0.407965      0.199408
O            -0.192895      0.411287     -0.091091
O            -0.300067     -0.404242      0.151777
O             0.202151     -0.418743      0.099553
O             0.298808      0.426939     -0.148638
O            -0.048300      0.423269      0.150897
O            -0.431706     -0.430199     -0.110147
O             0.057236     -0.422169     -0.145337
O             0.449275      0.409010      0.100579
Fe            0.143263     -0.249630     -0.289480
Fe            0.357277     -0.094065      0.473403
Fe           -0.134585     -0.078798      0.289081
Fe           -0.352488     -0.261017     -0.477700
H            -0.082614     -0.246933     -0.439890
H            -0.370194     -0.017555      0.237442
H             0.098516     -0.082188      0.451091
H             0.427717     -0.271349     -0.306688
O            -0.193669     -0.250011      0.411404
O            -0.323350     -0.086119     -0.348247
O             0.197688     -0.080953     -0.410967
O             0.304327     -0.273721      0.343441
O            -0.055378     -0.244642     -0.342897
O            -0.448508     -0.111983      0.391549
O             0.074350     -0.086814      0.353144
O             0.444235     -0.261185     -0.404634
Fe            0.130201      0.085942     -0.278155
H             0.363026      0.062115     -0.242317
Fe           -0.134636      0.260659      0.282684
Fe           -0.367959      0.091314     -0.466875
H            -0.097210      0.075123     -0.459997
H            -0.394592      0.241119      0.298120
H             0.121974      0.225721      0.495780
H             0.389086      0.150244     -0.426851
O            -0.198617      0.081399      0.417712
O            -0.305667      0.253124     -0.342488
O             0.181943      0.232187     -0.417429
O             0.334549      0.080409      0.341645
O            -0.063180      0.080818     -0.359925
O            -0.459685      0.239595      0.380505
O             0.053171      0.250193      0.342123
O             0.449842      0.071485     -0.417258
Fe            0.145179      0.421192     -0.277110
Ni            0.368440     -0.430691      0.482242
Fe           -0.142409     -0.411900      0.289991
Fe           -0.378773      0.405706     -0.483375
H            -0.104446      0.420481     -0.445808
H            -0.431599     -0.420418      0.294494
H             0.091251     -0.417290      0.460597
H             0.432739      0.464779     -0.285614
O            -0.207941      0.427696      0.400458
O            -0.294760     -0.411789     -0.354284
O             0.203514     -0.431469     -0.407978
O             0.311477      0.425394      0.345886
O            -0.060083      0.435272     -0.354977
O            -0.458101     -0.419272      0.392067
O             0.058058     -0.429283      0.357733
O             0.450058      0.425068     -0.380001
H            -0.456238     -0.174993      0.305744
H             0.405191      0.153988      0.361907
H             0.311647      0.346138      0.410775
data_nwchem_pspw

_audit_creation_date   Fri Sep 30 14:23:08 2022
_audit_creation_method    generated by PSPW module of NWChem


_cell_length_a            10.0667
_cell_length_b             9.1552
_cell_length_c             9.2041
_cell_angle_alpha         90.0000
_cell_angle_beta          90.0000
_cell_angle_gamma         90.0000

_symmetry_space_group_name_H-M     P1  

loop_
_atom_site_type_symbol
_atom_site_fract_x
_atom_site_fract_y
_atom_site_fract_z
Fe            0.146051     -0.254587      0.203951
Fe            0.366366     -0.096551     -0.010988
Fe           -0.146951     -0.086614     -0.242187
Fe           -0.356567     -0.266416      0.032387
H            -0.086347     -0.251877      0.057386
H            -0.411997     -0.079712     -0.204556
H             0.074126     -0.063344     -0.038200
H             0.367898     -0.263929      0.264401
O            -0.201743     -0.249167     -0.103059
O            -0.309717     -0.088768      0.161786
O             0.191746     -0.072732      0.096068
O             0.311156     -0.263330     -0.150785
O            -0.053838     -0.240350      0.157459
O            -0.435663     -0.087385     -0.102869
O             0.048884     -0.075887     -0.140572
O             0.457890     -0.238737      0.110054
Fe            0.130680      0.093947      0.218074
Fe            0.365791      0.249723     -0.032182
Fe           -0.146205      0.245485     -0.236319
Fe           -0.352193      0.082412      0.024838
H            -0.100833      0.102246      0.040883
H            -0.411060      0.242331     -0.195381
H             0.089142      0.268975     -0.048955
H             0.410904      0.062715      0.202142
O            -0.189800      0.080992     -0.107110
O            -0.289421      0.252441      0.143512
O             0.205313      0.257858      0.109153
O             0.305839      0.065034     -0.158909
O            -0.063661      0.089478      0.140029
O            -0.440232      0.248885     -0.098478
O             0.060783      0.258632     -0.148215
O             0.448651      0.073997      0.102866
Fe            0.136316      0.422753      0.234145
Fe            0.366846     -0.424008     -0.020828
Fe           -0.146636     -0.409974     -0.232989
Fe           -0.354517      0.411673      0.025012
H            -0.092569      0.442547      0.062949
H            -0.411247     -0.422215     -0.205258
H             0.099888     -0.411961     -0.055175
H             0.408935      0.404173      0.221002
O            -0.203376      0.412056     -0.115013
O            -0.295294     -0.424367      0.151353
O             0.194647     -0.418483      0.081512
O             0.297217      0.405384     -0.152273
O            -0.055357      0.429120      0.158817
O            -0.452284     -0.430715     -0.109476
O             0.049423     -0.420538     -0.149966
O             0.445640      0.409008      0.124743
Fe            0.144072     -0.247907     -0.265198
Fe            0.347865     -0.081834      0.486066
Fe           -0.135261     -0.080466      0.287294
Fe           -0.358230     -0.249846     -0.460388
H            -0.087110     -0.251252     -0.455781
H            -0.378985     -0.085587      0.246822
H             0.097320     -0.058344      0.450464
H             0.419971     -0.246175     -0.284039
O            -0.192934     -0.246743      0.405658
O            -0.308468     -0.073971     -0.355587
O             0.182609     -0.080317     -0.409106
O             0.308457     -0.251763      0.341833
O            -0.054547     -0.244592     -0.350007
O            -0.454278     -0.099914      0.385911
O             0.064348     -0.068390      0.349119
O             0.441755     -0.244744     -0.391593
Fe            0.129726      0.089379     -0.276561
H             0.368228      0.049948     -0.246629
Fe           -0.140618      0.256942      0.277778
Fe           -0.370111      0.091945     -0.487878
H            -0.091608      0.085340     -0.455923
H            -0.410619      0.262460      0.279335
H             0.122619      0.241440     -0.496113
H             0.387580      0.166187     -0.408080
O            -0.203896      0.084478      0.389217
O            -0.314934      0.235328     -0.344946
O             0.188129      0.234257     -0.416385
O             0.317615      0.071931      0.331624
O            -0.052650      0.073299     -0.360993
O            -0.456229      0.245505      0.370109
O             0.056764      0.242634      0.338808
O             0.437295      0.075228     -0.396368
Fe            0.150504      0.418543     -0.279957
Ni            0.371653     -0.409163      0.490756
Fe           -0.135535     -0.412381      0.296397
Fe           -0.377391      0.407981     -0.482038
H            -0.093668      0.415620     -0.459469
H            -0.393946     -0.417233      0.304417
H             0.112267     -0.398806      0.462063
H             0.454989      0.436592     -0.284149
O            -0.202187      0.418623      0.402260
O            -0.309780     -0.419393     -0.352331
O             0.195130     -0.409516     -0.403218
O             0.305278      0.441151      0.361101
O            -0.046011      0.419510     -0.365455
O            -0.437332     -0.416900      0.397134
O             0.067043     -0.395757      0.356578
O             0.452121      0.442006     -0.387290
H            -0.498520     -0.156813      0.309585
H             0.381623      0.145348      0.359924
H             0.294617      0.351960      0.417693
data_nwchem_pspw

_audit_creation_date   Fri Sep 30 17:26:48 2022
_audit_creation_method    generated by PSPW module of NWChem


_cell_length_a            10.0667
_cell_length_b             9.1552
_cell_length_c             9.2041
_cell_angle_alpha         90.0000
_cell_angle_beta          90.0000
_cell_angle_gamma         90.0000

_symmetry_space_group_name_H-M     P1  

loop_
_atom_site_type_symbol
_atom_site_fract_x
_atom_site_fract_y
_atom_site_fract_z
Fe            0.146199     -0.255071      0.217012
Fe            0.367274     -0.083736     -0.026830
Fe           -0.146089     -0.079511     -0.226491
Fe           -0.370442     -0.245997      0.030624
H            -0.088012     -0.254622      0.050183
H            -0.400839     -0.086415     -0.195653
H             0.093366     -0.086889     -0.049684
H             0.372539     -0.265296      0.255955
O            -0.205715     -0.252026     -0.091352
O            -0.308635     -0.064462      0.156492
O             0.187211     -0.078564      0.088750
O             0.293714     -0.245619     -0.138298
O            -0.054173     -0.253796      0.152624
O            -0.439574     -0.071216     -0.099340
O             0.044465     -0.063601     -0.141146
O             0.445127     -0.252371      0.104480
Fe            0.129190      0.086951      0.221476
Fe            0.352076      0.257582     -0.022370
Fe           -0.138781      0.243466     -0.242165
Fe           -0.355561      0.109374      0.021066
H            -0.090241      0.087427      0.039299
H            -0.427441      0.249831     -0.224356
H             0.102061      0.247589     -0.063889
H             0.409148      0.103115      0.203075
O            -0.198128      0.095500     -0.099392
O            -0.303035      0.256760      0.161943
O             0.189666      0.238667      0.101041
O             0.312363      0.093115     -0.162608
O            -0.071389      0.073249      0.139981
O            -0.448854      0.256670     -0.116549
O             0.061438      0.270315     -0.157225
O             0.445847      0.098762      0.103407
Fe            0.133711      0.416146      0.224032
Fe            0.357644     -0.419768     -0.017403
Fe           -0.136465     -0.416899     -0.216421
Fe           -0.345991      0.417195      0.013407
H            -0.081340      0.395793      0.041376
H            -0.399824     -0.419628     -0.191503
H             0.085854     -0.403043     -0.032902
H             0.415428      0.430506      0.209025
O            -0.184292      0.406418     -0.102342
O            -0.307970     -0.426632      0.161736
O             0.197367     -0.421679      0.096652
O             0.297887      0.420922     -0.139662
O            -0.054264      0.405551      0.141544
O            -0.443894     -0.397356     -0.100921
O             0.048980     -0.388653     -0.131940
O             0.458318      0.420657      0.110687
Fe            0.143959     -0.246709     -0.274200
Fe            0.348290     -0.069725      0.478543
Fe           -0.139542     -0.090203      0.275804
Fe           -0.355419     -0.267219     -0.451901
H            -0.085573     -0.248960     -0.452606
H            -0.361709     -0.018775      0.237374
H             0.096081     -0.095936      0.442931
H             0.406233     -0.260229     -0.300271
O            -0.202184     -0.245490      0.406113
O            -0.311004     -0.078067     -0.348695
O             0.200053     -0.088330     -0.405222
O             0.314475     -0.254966      0.344073
O            -0.056908     -0.245279     -0.346205
O            -0.445586     -0.104587      0.399253
O             0.058232     -0.092453      0.350756
O             0.438353     -0.253782     -0.399645
Fe            0.136561      0.080594     -0.280376
H             0.390616      0.084624     -0.250432
Fe           -0.123401      0.244223      0.283120
Fe           -0.361377      0.073622     -0.484652
H            -0.080005      0.087974     -0.465180
H            -0.415043      0.248021      0.303273
H             0.137291      0.247360      0.495896
H             0.403300      0.170342     -0.426626
O            -0.188821      0.077644      0.397155
O            -0.300107      0.239315     -0.359649
O             0.198584      0.250369     -0.419228
O             0.300450      0.075779      0.334013
O            -0.052497      0.084242     -0.358659
O            -0.452961      0.229451      0.399799
O             0.053831      0.245679      0.351843
O             0.440779      0.079977     -0.390512
Fe            0.141649      0.427094     -0.284301
Ni            0.370278     -0.426780      0.488256
Fe           -0.153272     -0.420148      0.283616
Fe           -0.362000      0.407329     -0.488059
H            -0.070433      0.406236     -0.464922
H            -0.442635     -0.425929      0.308453
H             0.104570     -0.396837      0.446415
H             0.440426      0.424218     -0.293977
O            -0.192382      0.414899      0.402735
O            -0.294135     -0.437263     -0.347733
O             0.200255     -0.403618     -0.407225
O             0.305644      0.415904      0.354425
O            -0.042644      0.418397     -0.364141
O            -0.444702     -0.412971      0.414823
O             0.051790     -0.417110      0.356847
O             0.452454      0.419859     -0.396862
H            -0.460200     -0.165499      0.317046
H             0.328749      0.170658      0.359586
H             0.294607      0.350088      0.433140
data_nwchem_pspw

_audit_creation_date   Fri Sep 30 20:24:07 2022
_audit_creation_method    generated by PSPW module of NWChem


_cell_length_a            10.0667
_cell_length_b             9.1552
_cell_length_c             9.2041
_cell_angle_alpha         90.0000
_cell_angle_beta          90.0000
_cell_angle_gamma         90.0000

_symmetry_space_group_name_H-M     P1  

loop_
_atom_site_type_symbol
_atom_site_fract_x
_atom_site_fract_y
_atom_site_fract_z
Fe            0.137651     -0.258539      0.204926
Fe            0.359321     -0.104365     -0.019531
Fe           -0.149112     -0.090170     -0.220045
Fe           -0.366689     -0.244437      0.010117
H            -0.092320     -0.243014      0.051596
H            -0.401674     -0.045379     -0.198655
H             0.094843     -0.090869     -0.057295
H             0.349693     -0.240836      0.243835
O            -0.199856     -0.250918     -0.086438
O            -0.302422     -0.076970      0.161833
O             0.190597     -0.082667      0.084939
O             0.318053     -0.255820     -0.151221
O            -0.062504     -0.248315      0.149910
O            -0.450031     -0.070950     -0.108555
O             0.052474     -0.095342     -0.153228
O             0.451744     -0.240923      0.095824
Fe            0.133131      0.096591      0.225473
Fe            0.361228      0.250189     -0.014761
Fe           -0.147335      0.256019     -0.224423
Fe           -0.358441      0.084714      0.023328
H            -0.097813      0.083823      0.048915
H            -0.403067      0.268940     -0.206814
H             0.099559      0.251570     -0.061251
H             0.420627      0.055414      0.199980
O            -0.210418      0.074623     -0.108647
O            -0.301506      0.244610      0.152768
O             0.192817      0.259632      0.097065
O             0.310670      0.090048     -0.162347
O            -0.064526      0.071812      0.147007
O            -0.439945      0.267667     -0.101637
O             0.061304      0.252430     -0.158312
O             0.446313      0.081926      0.096797
Fe            0.141757      0.413884      0.241237
Fe            0.363254     -0.427746     -0.021348
Fe           -0.139884     -0.421488     -0.220862
Fe           -0.355334      0.412886      0.022841
H            -0.067150      0.434942      0.049020
H            -0.426848     -0.425652     -0.216812
H             0.099894     -0.435448     -0.052888
H             0.425367      0.420257      0.220696
O            -0.188828      0.417148     -0.093774
O            -0.308279     -0.405553      0.151544
O             0.196672     -0.424128      0.093346
O             0.299660      0.416778     -0.145890
O            -0.052582      0.437203      0.150943
O            -0.444463     -0.421879     -0.116396
O             0.063630     -0.420723     -0.150934
O             0.454616      0.423875      0.115560
Fe            0.146291     -0.262042     -0.278723
Fe            0.347601     -0.072296      0.475714
Fe           -0.134564     -0.087224      0.296719
Fe           -0.360319     -0.251688     -0.471045
H            -0.098836     -0.274784     -0.446436
H            -0.343535     -0.044718      0.252570
H             0.078397     -0.100297      0.454204
H             0.413597     -0.241780     -0.291477
O            -0.187962     -0.246649      0.417762
O            -0.310459     -0.082145     -0.362619
O             0.181922     -0.091796     -0.413673
O             0.303306     -0.236954      0.335824
O            -0.054700     -0.252707     -0.344169
O            -0.458599     -0.101901      0.388679
O             0.065174     -0.073322      0.350550
O             0.447572     -0.231228     -0.391282
Fe            0.140059      0.072472     -0.279708
H             0.377748      0.075675     -0.242429
Fe           -0.137236      0.258216      0.270649
Fe           -0.362788      0.083220     -0.470362
H            -0.097009      0.099073     -0.444962
H            -0.417268      0.236343      0.299666
H             0.138274      0.248214      0.494643
H             0.401839      0.182312     -0.421785
O            -0.207399      0.086962      0.406279
O            -0.314009      0.258122     -0.341508
O             0.197170      0.234999     -0.421239
O             0.326657      0.074572      0.325206
O            -0.061133      0.090674     -0.343991
O            -0.450695      0.247826      0.399391
O             0.054684      0.249083      0.355616
O             0.435468      0.085815     -0.400596
Fe            0.142565      0.411185     -0.286403
Ni            0.376679     -0.401597      0.486293
Fe           -0.143758     -0.416412      0.274727
Fe           -0.367091      0.419874     -0.475409
H            -0.113057      0.398120     -0.458467
H            -0.393724     -0.416220      0.305579
H             0.125746     -0.427469      0.442628
H             0.409492      0.448283     -0.305694
O            -0.200678      0.416517      0.405366
O            -0.292402     -0.410669     -0.344335
O             0.202539     -0.421856     -0.407701
O             0.322203      0.432462      0.350172
O            -0.061034      0.413867     -0.365996
O            -0.446693     -0.412579      0.398414
O             0.067127     -0.421341      0.352100
O             0.455577      0.452034     -0.395449
H            -0.472638     -0.137557      0.289699
H             0.365386      0.167950      0.343462
H             0.349747      0.357859      0.418170
data_nwchem_pspw

_audit_creation_date   Fri Sep 30 23:26:41 2022
_audit_creation_method    generated by PSPW module of NWChem


_cell_length_a            10.0667
_cell_length_b             9.1552
_cell_length_c             9.2041
_cell_angle_alpha         90.0000
_cell_angle_beta          90.0000
_cell_angle_gamma         90.0000

_symmetry_space_group_name_H-M     P1  

loop_
_atom_site_type_symbol
_atom_site_fract_x
_atom_site_fract_y
_atom_site_fract_z
Fe            0.143776     -0.251920      0.197403
Fe            0.350955     -0.100763     -0.018122
Fe           -0.152899     -0.081833     -0.242186
Fe           -0.369134     -0.250741      0.012245
H            -0.111420     -0.254541      0.043838
H            -0.434421     -0.082628     -0.214592
H             0.098752     -0.065389     -0.042055
H             0.381797     -0.262890      0.277727
O            -0.200218     -0.252353     -0.100854
O            -0.307645     -0.087167      0.155480
O             0.193007     -0.060024      0.100194
O             0.311392     -0.239323     -0.172101
O            -0.063148     -0.240238      0.137386
O            -0.447914     -0.073799     -0.111528
O             0.068672     -0.081146     -0.143717
O             0.439273     -0.250299      0.096675
Fe            0.144697      0.102979      0.237057
Fe            0.355022      0.250053     -0.023230
Fe           -0.145098      0.261236     -0.223698
Fe           -0.359082      0.089553      0.024002
H            -0.091178      0.082720      0.040501
H            -0.409477      0.246646     -0.199508
H             0.086295      0.260574     -0.042647
H             0.407542      0.078706      0.210764
O            -0.193434      0.095774     -0.100309
O            -0.302366      0.253681      0.151524
O             0.197408      0.253711      0.102913
O             0.309025      0.077644     -0.150947
O            -0.063462      0.084333      0.145524
O            -0.443253      0.257169     -0.096273
O             0.059671      0.261652     -0.146992
O             0.451300      0.095597      0.114046
Fe            0.143023      0.407559      0.238043
Fe            0.357548     -0.398284     -0.038111
Fe           -0.144287     -0.412847     -0.228689
Fe           -0.358680      0.423516      0.041321
H            -0.087476      0.425380      0.051538
H            -0.398573     -0.403881     -0.204537
H             0.079118     -0.409098     -0.040332
H             0.406439      0.430175      0.212116
O            -0.197015      0.416228     -0.096106
O            -0.300148     -0.406577      0.150989
O             0.198738     -0.419434      0.092592
O             0.315141      0.415236     -0.144760
O            -0.057545      0.420079      0.147498
O            -0.442586     -0.415703     -0.109233
O             0.054244     -0.410843     -0.140557
O             0.435349      0.437928      0.112511
Fe            0.141255     -0.241065     -0.283458
Fe            0.357234     -0.092209      0.488112
Fe           -0.130566     -0.086402      0.261458
Fe           -0.359396     -0.258671     -0.486448
H            -0.085561     -0.236387     -0.452058
H            -0.363837     -0.081102      0.234205
H             0.100745     -0.091495      0.440190
H             0.419078     -0.257444     -0.301011
O            -0.195117     -0.251636      0.398172
O            -0.319959     -0.081378     -0.352743
O             0.194610     -0.082967     -0.410814
O             0.311438     -0.264297      0.349361
O            -0.061126     -0.234341     -0.354407
O            -0.451404     -0.097434      0.382968
O             0.056969     -0.092115      0.343808
O             0.449131     -0.260838     -0.395815
Fe            0.126955      0.089903     -0.277536
H             0.374554      0.069529     -0.228307
Fe           -0.129105      0.245317      0.292149
Fe           -0.358106      0.087513     -0.477201
H            -0.104869      0.071806     -0.452725
H            -0.401714      0.224461      0.303627
H             0.150025      0.229019     -0.489370
H             0.413035      0.166627     -0.405544
O            -0.205323      0.067782      0.391857
O            -0.303189      0.247833     -0.339351
O             0.206550      0.235035     -0.399666
O             0.311900      0.070856      0.338020
O            -0.052796      0.084757     -0.365052
O            -0.446221      0.242218      0.397036
O             0.060072      0.235704      0.366719
O             0.450927      0.073259     -0.380176
Fe            0.147998      0.426572     -0.272286
Ni            0.369160     -0.430285      0.479062
Fe           -0.135094     -0.425877      0.287666
Fe           -0.370040      0.409618     -0.468846
H            -0.060537      0.397760     -0.453009
H            -0.410946     -0.447308      0.297156
H             0.124786     -0.426512      0.456321
H             0.417259      0.403653     -0.300660
O            -0.197501      0.408055      0.410657
O            -0.308490     -0.420564     -0.329756
O             0.200131     -0.414468     -0.401394
O             0.297989      0.414067      0.357762
O            -0.041271      0.407045     -0.349721
O            -0.450469     -0.422718      0.394559
O             0.070913     -0.426397      0.363176
O             0.439332      0.417594     -0.401465
H            -0.465797     -0.176629      0.316126
H             0.322277      0.164199      0.383755
H             0.362569      0.340935      0.376340
data_nwchem_pspw

_audit_creation_date   Sat Oct  1 02:30:05 2022
_audit_creation_method    generated by PSPW module of NWChem


_cell_length_a            10.0667
_cell_length_b             9.1552
_cell_length_c             9.2041
_cell_angle_alpha         90.0000
_cell_angle_beta          90.0000
_cell_angle_gamma         90.0000

_symmetry_space_group_name_H-M     P1  

loop_
_atom_site_type_symbol
_atom_site_fract_x
_atom_site_fract_y
_atom_site_fract_z
Fe            0.150874     -0.243774      0.195959
Fe            0.351492     -0.103886     -0.022321
Fe           -0.144472     -0.091678     -0.227269
Fe           -0.366893     -0.257546      0.007453
H            -0.096639     -0.234829      0.046666
H            -0.430547     -0.080493     -0.205183
H             0.076895     -0.091501     -0.057534
H             0.369203     -0.257949      0.264316
O            -0.194485     -0.250190     -0.092413
O            -0.300347     -0.082055      0.166980
O             0.192185     -0.067202      0.083835
O             0.296529     -0.243520     -0.163491
O            -0.058697     -0.253876      0.142545
O            -0.449419     -0.083531     -0.101373
O             0.049853     -0.086482     -0.157752
O             0.452286     -0.246124      0.086390
Fe            0.136645      0.094599      0.226328
Fe            0.363240      0.250787     -0.011490
Fe           -0.147019      0.251265     -0.230568
Fe           -0.343317      0.081512      0.015965
H            -0.088607      0.099834      0.060772
H            -0.415037      0.244994     -0.205787
H             0.097741      0.254275     -0.060085
H             0.416378      0.081319      0.205674
O            -0.182665      0.081880     -0.096166
O            -0.295005      0.245536      0.156282
O             0.191593      0.244343      0.094197
O             0.300778      0.085609     -0.155148
O            -0.049942      0.095704      0.158660
O            -0.435646      0.237903     -0.099695
O             0.062902      0.259251     -0.155880
O             0.455517      0.086475      0.108867
Fe            0.134875      0.423732      0.231620
Fe            0.360624     -0.411517     -0.032492
Fe           -0.142105     -0.416805     -0.216656
Fe           -0.347533      0.405385      0.034732
H            -0.081193      0.418116      0.040166
H            -0.407764     -0.438645     -0.203001
H             0.092995     -0.433080     -0.053976
H             0.410290      0.445958      0.192677
O            -0.198809      0.415807     -0.095878
O            -0.306277     -0.420191      0.145763
O             0.198964     -0.406970      0.093905
O             0.286217      0.419918     -0.124833
O            -0.055900      0.418992      0.145828
O            -0.441979     -0.421776     -0.110764
O             0.049850     -0.416058     -0.149413
O             0.455297      0.422217      0.095404
Fe            0.134399     -0.258149     -0.290882
Fe            0.364165     -0.077900      0.498442
Fe           -0.132602     -0.073913      0.279326
Fe           -0.353117     -0.253826     -0.469203
H            -0.099763     -0.247569     -0.465939
H            -0.358751     -0.124440      0.237876
H             0.101773     -0.070290      0.456990
H             0.414053     -0.267952     -0.272665
O            -0.190262     -0.255186      0.399618
O            -0.309578     -0.078720     -0.344903
O             0.196793     -0.082795     -0.404106
O             0.305554     -0.245258      0.337860
O            -0.065620     -0.248028     -0.355890
O            -0.442865     -0.103711      0.381860
O             0.065034     -0.064108      0.355693
O             0.440948     -0.243751     -0.378783
Fe            0.130455      0.082598     -0.272389
H             0.366658      0.068330     -0.240254
Fe           -0.134217      0.254740      0.283440
Fe           -0.359419      0.093816     -0.470300
H            -0.108333      0.088194     -0.463785
H            -0.415138      0.241665      0.301546
H             0.126226      0.237504     -0.497845
H             0.426112      0.179856     -0.397968
O            -0.189413      0.076065      0.422126
O            -0.313246      0.248773     -0.345893
O             0.197149      0.236916     -0.412059
O             0.312326      0.077936      0.340664
O            -0.063951      0.105502     -0.356160
O            -0.453663      0.245297      0.395580
O             0.062310      0.252393      0.354161
O             0.454908      0.080480     -0.382732
Fe            0.148269      0.414440     -0.279116
Ni            0.368220     -0.423646      0.491603
Fe           -0.147632     -0.419219      0.270595
Fe           -0.375036      0.422794     -0.486018
H            -0.093844      0.418544     -0.453592
H            -0.451273     -0.396032      0.294969
H             0.081716     -0.425154      0.449559
H             0.410955      0.431749     -0.289074
O            -0.204363      0.412093      0.397377
O            -0.305482     -0.424192     -0.349948
O             0.202277     -0.424406     -0.405352
O             0.295098      0.432215      0.352312
O            -0.065356      0.418698     -0.354853
O            -0.462183     -0.400569      0.398428
O             0.046089     -0.416703      0.348214
O             0.438829      0.408901     -0.384811
H            -0.494996     -0.154986      0.311308
H             0.335532      0.150161      0.409139
H             0.329648      0.336718      0.362597
data_nwchem_pspw

_audit_creation_date   Sat Oct  1 05:23:40 2022
_audit_creation_method    generated by PSPW module of NWChem


_cell_length_a            10.0667
_cell_length_b             9.1552
_cell_length_c             9.2041
_cell_angle_alpha         90.0000
_cell_angle_beta          90.0000
_cell_angle_gamma         90.0000

_symmetry_space_group_name_H-M     P1  

loop_
_atom_site_type_symbol
_atom_site_fract_x
_atom_site_fract_y
_atom_site_fract_z
Fe            0.138442     -0.257407      0.212460
Fe            0.362094     -0.082269     -0.022895
Fe           -0.136302     -0.075734     -0.221147
Fe           -0.371519     -0.254509      0.004677
H            -0.103000     -0.230847      0.055630
H            -0.410051     -0.070795     -0.205255
H             0.098964     -0.069974     -0.053238
H             0.379145     -0.273854      0.259623
O            -0.186548     -0.233179     -0.093220
O            -0.304691     -0.095856      0.148338
O             0.199567     -0.089280      0.091581
O             0.309222     -0.244653     -0.149593
O            -0.067696     -0.244262      0.152941
O            -0.441683     -0.073014     -0.101811
O             0.068573     -0.072865     -0.153873
O             0.449584     -0.260095      0.100458
Fe            0.135003      0.076542      0.215811
Fe            0.341469      0.249871     -0.012178
Fe           -0.140665      0.252834     -0.232739
Fe           -0.347270      0.088940      0.021418
H            -0.084026      0.054568      0.050154
H            -0.404727      0.261388     -0.205170
H             0.081057      0.234875     -0.059556
H             0.422296      0.110348      0.212759
O            -0.192238      0.088237     -0.099150
O            -0.301583      0.254582      0.157142
O             0.182625      0.249590      0.103720
O             0.323263      0.086069     -0.160976
O            -0.060175      0.067777      0.146641
O            -0.450438      0.250728     -0.111360
O             0.070688      0.252555     -0.158435
O             0.445876      0.098356      0.110792
Fe            0.131055      0.407510      0.232708
Fe            0.352278     -0.413110     -0.010382
Fe           -0.134597     -0.410263     -0.211197
Fe           -0.367753      0.428520      0.029878
H            -0.086016      0.394041      0.038675
H            -0.391416     -0.431587     -0.210687
H             0.101093     -0.422267     -0.040306
H             0.396882      0.441722      0.209248
O            -0.186737      0.413749     -0.106449
O            -0.307341     -0.404997      0.139479
O             0.172507     -0.428336      0.091847
O             0.307848      0.428620     -0.147939
O            -0.065391      0.405336      0.143143
O            -0.439996     -0.425204     -0.115926
O             0.066116     -0.415788     -0.140029
O             0.436510      0.436058      0.106914
Fe            0.150709     -0.268120     -0.281396
Fe            0.353832     -0.090439      0.477631
Fe           -0.140269     -0.095550      0.295666
Fe           -0.357181     -0.249808     -0.454899
H            -0.075665     -0.281877     -0.439136
H            -0.376993     -0.072472      0.222301
H             0.075803     -0.063644      0.449630
H             0.419284     -0.235220     -0.283229
O            -0.191487     -0.253241      0.417347
O            -0.304155     -0.084396     -0.337094
O             0.191015     -0.089718     -0.406045
O             0.311113     -0.255255      0.342407
O            -0.040089     -0.253147     -0.348987
O            -0.451011     -0.098072      0.380436
O             0.047796     -0.081825      0.352643
O             0.444186     -0.248142     -0.386071
Fe            0.155903      0.093538     -0.295491
H             0.390604      0.093866     -0.240757
Fe           -0.141661      0.252529      0.278228
Fe           -0.362833      0.087324     -0.477317
H            -0.114023      0.066280     -0.451474
H            -0.412498      0.258940      0.299909
H             0.107404      0.253710      0.464744
H             0.424425      0.174448     -0.419289
O            -0.195178      0.079694      0.410529
O            -0.309663      0.249713     -0.340769
O             0.173019      0.255367     -0.429428
O             0.291879      0.085438      0.354523
O            -0.055841      0.068954     -0.359498
O            -0.439938      0.246237      0.399877
O             0.038188      0.237642      0.361576
O             0.437296      0.072465     -0.396397
Fe            0.150200      0.421014     -0.288518
Ni            0.383778     -0.404576      0.469948
Fe           -0.156236     -0.428472      0.278681
Fe           -0.368839      0.416936     -0.474694
H            -0.081436      0.433664     -0.447910
H            -0.407984     -0.380245      0.286306
H             0.115826     -0.427924      0.464875
H             0.428601      0.429337     -0.313335
O            -0.200116      0.415894      0.414092
O            -0.292113     -0.414511     -0.334247
O             0.205236     -0.414787     -0.416653
O             0.314977      0.441257      0.338629
O            -0.055672      0.423151     -0.345567
O            -0.431101     -0.389627      0.388013
O             0.066283     -0.428685      0.356942
O             0.444173      0.411224     -0.414678
H            -0.453356     -0.189157      0.328430
H             0.271511      0.166219      0.413149
H             0.333552      0.379855      0.420871
data_nwchem_pspw

_audit_creation_date   Sat Oct  1 08:25:59 2022
_audit_creation_method    generated by PSPW module of NWChem


_cell_length_a            10.0667
_cell_length_b             9.1552
_cell_length_c             9.2041
_cell_angle_alpha         90.0000
_cell_angle_beta          90.0000
_cell_angle_gamma         90.0000

_symmetry_space_group_name_H-M     P1  

loop_
_atom_site_type_symbol
_atom_site_fract_x
_atom_site_fract_y
_atom_site_fract_z
Fe            0.140119     -0.249127      0.197587
Fe            0.359515     -0.095120     -0.014268
Fe           -0.143827     -0.081999     -0.224860
Fe           -0.362387     -0.243208      0.017464
H            -0.104147     -0.247475      0.048696
H            -0.422314     -0.069667     -0.203671
H             0.094543     -0.090734     -0.046388
H             0.375665     -0.255626      0.261318
O            -0.205644     -0.248458     -0.102721
O            -0.300366     -0.076082      0.154323
O             0.186280     -0.080330      0.095363
O             0.292214     -0.246604     -0.145429
O            -0.065039     -0.239861      0.140794
O            -0.446414     -0.079975     -0.099185
O             0.054098     -0.093708     -0.145975
O             0.452807     -0.243493      0.110843
Fe            0.141485      0.085352      0.236241
Fe            0.363864      0.260404     -0.031223
Fe           -0.145996      0.256070     -0.248564
Fe           -0.345255      0.099347      0.011586
H            -0.068236      0.095910      0.055180
H            -0.416513      0.268615     -0.204563
H             0.069539      0.233018     -0.047476
H             0.425792      0.074184      0.184972
O            -0.192706      0.089021     -0.115704
O            -0.306943      0.249080      0.159715
O             0.198316      0.243928      0.103072
O             0.295041      0.083253     -0.144561
O            -0.047681      0.078994      0.155291
O            -0.436524      0.258735     -0.097779
O             0.055427      0.256707     -0.150360
O             0.456511      0.078274      0.087625
Fe            0.137860      0.418480      0.213967
Fe            0.360136     -0.414437     -0.032368
Fe           -0.140673     -0.422073     -0.236122
Fe           -0.339423      0.421898      0.026334
H            -0.099954      0.425347      0.051105
H            -0.410137     -0.423243     -0.209139
H             0.073774     -0.404294     -0.042742
H             0.400762      0.430763      0.200087
O            -0.192390      0.401256     -0.107126
O            -0.289226     -0.418140      0.144489
O             0.185076     -0.415351      0.085112
O             0.305373      0.423266     -0.159246
O            -0.069680      0.424684      0.152130
O            -0.444206     -0.426751     -0.108038
O             0.045941     -0.410403     -0.144418
O             0.439537      0.423547      0.101765
Fe            0.145407     -0.262673     -0.276820
Fe            0.359796     -0.082219      0.492852
Fe           -0.130311     -0.071573      0.286334
Fe           -0.350864     -0.261223     -0.457380
H            -0.088905     -0.243554     -0.452276
H            -0.367383     -0.061793      0.234061
H             0.100918     -0.080065      0.456740
H             0.437007     -0.235116     -0.285889
O            -0.190440     -0.243894      0.405196
O            -0.307333     -0.077196     -0.343834
O             0.197925     -0.091723     -0.400679
O             0.303681     -0.250498      0.338684
O            -0.046271     -0.247254     -0.355806
O            -0.447012     -0.116744      0.392202
O             0.063456     -0.075457      0.356867
O             0.460049     -0.256939     -0.384141
Fe            0.128253      0.071761     -0.267935
H             0.358114      0.082799     -0.225782
Fe           -0.138225      0.256941      0.283797
Fe           -0.377430      0.081383     -0.480118
H            -0.102292      0.060868     -0.464923
H            -0.409625      0.239695      0.289846
H             0.134644      0.223770     -0.484224
H             0.397192      0.165040     -0.405810
O            -0.209835      0.095529      0.400621
O            -0.319464      0.242204     -0.347407
O             0.191433      0.226299     -0.398125
O             0.317032      0.082224      0.363926
O            -0.058414      0.065505     -0.371932
O            -0.455856      0.250077      0.385292
O             0.060446      0.254922      0.351988
O             0.446284      0.077731     -0.379322
Fe            0.146165      0.416264     -0.280660
Ni            0.358013     -0.412731      0.493863
Fe           -0.143054     -0.418994      0.291836
Fe           -0.375362      0.406072     -0.474503
H            -0.090588      0.385520     -0.452081
H            -0.423947     -0.427875      0.306901
H             0.097406     -0.404801      0.429036
H             0.423799      0.443967     -0.285091
O            -0.213938      0.423089      0.413306
O            -0.295343     -0.425673     -0.350310
O             0.184174     -0.430677     -0.403867
O             0.302099      0.435429      0.340472
O            -0.041735      0.402438     -0.358482
O            -0.455327     -0.406917      0.402269
O             0.055351     -0.420361      0.338537
O             0.457296      0.441451     -0.382540
H            -0.457640     -0.168655      0.303996
H             0.391477      0.155793      0.370400
H             0.312725      0.344131      0.385985
data_nwchem_pspw

_audit_creation_date   Sat Oct  1 11:28:42 2022
_audit_creation_method    generated by PSPW module of NWChem


_cell_length_a            10.0667
_cell_length_b             9.1552
_cell_length_c             9.2041
_cell_angle_alpha         90.0000
_cell_angle_beta          90.0000
_cell_angle_gamma         90.0000

_symmetry_space_group_name_H-M     P1  

loop_
_atom_site_type_symbol
_atom_site_fract_x
_atom_site_fract_y
_atom_site_fract_z
Fe            0.128402     -0.266591      0.196887
Fe            0.368265     -0.113133      0.004941
Fe           -0.155018     -0.065281     -0.230844
Fe           -0.349791     -0.249597      0.014052
H            -0.097024     -0.236329      0.043125
H            -0.426344     -0.081365     -0.193883
H             0.086433     -0.079882     -0.042814
H             0.364701     -0.263746      0.254431
O            -0.195713     -0.234891     -0.097185
O            -0.299309     -0.085636      0.156591
O             0.181258     -0.088026      0.090427
O             0.293756     -0.257934     -0.136184
O            -0.066458     -0.261635      0.144811
O            -0.449665     -0.078758     -0.091223
O             0.060383     -0.068620     -0.146827
O             0.461726     -0.256765      0.116993
Fe            0.131316      0.073848      0.211211
Fe            0.352003      0.248944     -0.018566
Fe           -0.137889      0.268171     -0.244441
Fe           -0.348944      0.101736      0.023001
H            -0.096869      0.088501      0.036723
H            -0.406314      0.244435     -0.199491
H             0.080544      0.272800     -0.044793
H             0.421743      0.080053      0.208106
O            -0.187554      0.095972     -0.097095
O            -0.303888      0.244624      0.167101
O             0.188697      0.251222      0.112091
O             0.310702      0.086200     -0.153057
O            -0.063001      0.085323      0.136016
O            -0.437412      0.267253     -0.099627
O             0.060268      0.257601     -0.147532
O             0.437281      0.077173      0.101193
Fe            0.135283      0.417679      0.230972
Fe            0.367279     -0.430535     -0.040228
Fe           -0.151157     -0.414559     -0.213703
Fe           -0.342085      0.422916      0.043020
H            -0.094012      0.418536      0.050025
H            -0.409164     -0.438220     -0.209602
H             0.095627     -0.419374     -0.064969
H             0.412990      0.397153      0.207832
O            -0.196072      0.421273     -0.097761
O            -0.305158     -0.410215      0.153525
O             0.194004     -0.431850      0.080534
O             0.302867      0.406138     -0.166184
O            -0.056765      0.409602      0.149295
O            -0.441866     -0.408002     -0.115000
O             0.052033     -0.396134     -0.156770
O             0.446954      0.398072      0.106326
Fe            0.141094     -0.240881     -0.269415
Fe            0.350171     -0.093062      0.485225
Fe           -0.128917     -0.080213      0.278991
Fe           -0.353883     -0.257418     -0.468343
H            -0.096986     -0.257512     -0.439300
H            -0.373421     -0.066965      0.218536
H             0.085087     -0.073076      0.441261
H             0.401219     -0.266064     -0.294433
O            -0.192560     -0.240078      0.418937
O            -0.308481     -0.077405     -0.361336
O             0.187110     -0.085710     -0.409274
O             0.308491     -0.262233      0.339389
O            -0.064188     -0.244626     -0.339912
O            -0.455266     -0.112528      0.389228
O             0.057427     -0.087767      0.340658
O             0.441968     -0.262239     -0.387696
Fe            0.146116      0.088953     -0.278752
H             0.378084      0.095545     -0.235128
Fe           -0.123654      0.254038      0.285966
Fe           -0.358128      0.093930     -0.470967
H            -0.077813      0.080183     -0.458150
H            -0.396659      0.248094      0.299417
H             0.152317      0.236790     -0.497478
H             0.400593      0.153190     -0.429637
O            -0.189145      0.073083      0.415227
O            -0.314952      0.253470     -0.341659
O             0.214714      0.240784     -0.415813
O             0.312084      0.071235      0.329759
O            -0.041826      0.106537     -0.360196
O            -0.460557      0.235955      0.383743
O             0.063427      0.233557      0.349888
O             0.448219      0.070225     -0.391400
Fe            0.134268      0.432078     -0.284055
Ni            0.367434     -0.420693      0.474627
Fe           -0.149150     -0.419470      0.292912
Fe           -0.379545      0.405318     -0.487193
H            -0.115649      0.425894     -0.471751
H            -0.441412     -0.406922      0.282456
H             0.110873     -0.406568      0.490387
H             0.405469      0.416729     -0.295748
O            -0.192222      0.413902      0.425947
O            -0.312191     -0.426817     -0.346771
O             0.185192     -0.401727     -0.421007
O             0.315347      0.414577      0.348518
O            -0.053175      0.440921     -0.370739
O            -0.441984     -0.415936      0.386226
O             0.052546     -0.410322      0.348872
O             0.451118      0.445433     -0.384012
H            -0.479213     -0.163314      0.298403
H             0.331669      0.160228      0.380741
H             0.286215      0.360359      0.429120
data_nwchem_pspw

_audit_creation_date   Sat Oct  1 14:26:10 2022
_audit_creation_method    generated by PSPW module of NWChem


_cell_length_a            10.0667
_cell_length_b             9.1552
_cell_length_c             9.2041
_cell_angle_alpha         90.0000
_cell_angle_beta          90.0000
_cell_angle_gamma         90.0000

_symmetry_space_group_name_H-M     P1  

loop_
_atom_site_type_symbol
_atom_site_fract_x
_atom_site_fract_y
_atom_site_fract_z
Fe            0.140644     -0.250002      0.207853
Fe            0.365120     -0.085644     -0.008769
Fe           -0.147742     -0.099486     -0.211133
Fe           -0.372025     -0.244558      0.016456
H            -0.086685     -0.255800      0.049892
H            -0.410954     -0.063560     -0.205890
H             0.091265     -0.081667     -0.047422
H             0.365370     -0.259853      0.243353
O            -0.201726     -0.252149     -0.082620
O            -0.301648     -0.080929      0.150105
O             0.192013     -0.064537      0.088295
O             0.313945     -0.247501     -0.141765
O            -0.056864     -0.246653      0.155636
O            -0.444803     -0.067620     -0.105048
O             0.052625     -0.077015     -0.146432
O             0.445036     -0.244779      0.111221
Fe            0.131564      0.085457      0.236876
Fe            0.357436      0.250121     -0.005311
Fe           -0.137654      0.247320     -0.245183
Fe           -0.341493      0.099053      0.019812
H            -0.062981      0.103811      0.037631
H            -0.418956      0.244793     -0.196658
H             0.091503      0.253676     -0.057311
H             0.437315      0.090527      0.209661
O            -0.185055      0.079152     -0.103879
O            -0.307361      0.268933      0.158099
O             0.194464      0.244390      0.110869
O             0.317590      0.074809     -0.163665
O            -0.068069      0.094652      0.142322
O            -0.445002      0.254293     -0.094502
O             0.071844      0.256308     -0.158706
O             0.461067      0.087645      0.107667
Fe            0.144683      0.415799      0.231047
Fe            0.348291     -0.411801     -0.015797
Fe           -0.142836     -0.421543     -0.233284
Fe           -0.352957      0.430658      0.021377
H            -0.072205      0.411687      0.043633
H            -0.415000     -0.429772     -0.216041
H             0.067088     -0.432283     -0.037736
H             0.405815      0.427616      0.213653
O            -0.195998      0.410182     -0.115440
O            -0.312831     -0.408197      0.148427
O             0.192300     -0.419829      0.104953
O             0.306176      0.406183     -0.145254
O            -0.047395      0.426481      0.143864
O            -0.440173     -0.423698     -0.112689
O             0.051317     -0.424539     -0.140625
O             0.445876      0.424798      0.117200
Fe            0.160511     -0.272516     -0.281602
Fe            0.346473     -0.089099      0.474182
Fe           -0.133709     -0.080015      0.291059
Fe           -0.351768     -0.255910     -0.477504
H            -0.081314     -0.268487     -0.446854
H            -0.350621     -0.057658      0.238392
H             0.092166     -0.082935      0.461800
H             0.425536     -0.239743     -0.302761
O            -0.184894     -0.254559      0.413472
O            -0.310864     -0.081061     -0.343980
O             0.190449     -0.100025     -0.395947
O             0.312380     -0.257635      0.337021
O            -0.048148     -0.256653     -0.345795
O            -0.462702     -0.093573      0.378840
O             0.051248     -0.069454      0.360124
O             0.441767     -0.250646     -0.405043
Fe            0.143003      0.084121     -0.280669
H             0.378335      0.080550     -0.248947
Fe           -0.148651      0.269076      0.276838
Fe           -0.362487      0.081856     -0.478416
H            -0.077164      0.086941     -0.462488
H            -0.416191      0.243921      0.303558
H             0.111779      0.264321      0.456607
H             0.427849      0.163323     -0.413098
O            -0.199126      0.090961      0.392428
O            -0.307536      0.241068     -0.349130
O             0.200740      0.235680     -0.407392
O             0.316568      0.077787      0.340826
O            -0.052774      0.080007     -0.361835
O            -0.458211      0.232980      0.397619
O             0.068681      0.258138      0.358231
O             0.442570      0.062022     -0.397817
Fe            0.145611      0.412592     -0.283251
Ni            0.365511     -0.413585      0.479105
Fe           -0.148655     -0.405150      0.273929
Fe           -0.376674      0.406879     -0.483273
H            -0.083763      0.418470     -0.470191
H            -0.435068     -0.432837      0.300345
H             0.076077     -0.440496      0.448254
H             0.412164      0.418692     -0.288046
O            -0.204930      0.434693      0.398372
O            -0.313445     -0.423550     -0.354558
O             0.209387     -0.441087     -0.404460
O             0.302398      0.416909      0.361466
O            -0.060208      0.420480     -0.368868
O            -0.456712     -0.418973      0.401121
O             0.058061     -0.415417      0.345084
O             0.454664      0.440375     -0.380705
H            -0.498966     -0.124094      0.287894
H             0.300633      0.159391      0.401227
H             0.318727      0.348392      0.442338
data_nwchem_pspw

_audit_creation_date   Sat Oct  1 17:23:20 2022
_audit_creation_method    generated by PSPW module of NWChem


_cell_length_a            10.0667
_cell_length_b             9.1552
_cell_length_c             9.2041
_cell_angle_alpha         90.0000
_cell_angle_beta          90.0000
_cell_angle_gamma         90.0000

_symmetry_space_group_name_H-M     P1  

loop_
_atom_site_type_symbol
_atom_site_fract_x
_atom_site_fract_y
_atom_site_fract_z
Fe            0.151489     -0.256374      0.200630
Fe            0.358273     -0.082299     -0.028228
Fe           -0.147600     -0.085023     -0.224840
Fe           -0.359691     -0.255876      0.017397
H            -0.093472     -0.243978      0.037230
H            -0.392350     -0.068341     -0.198526
H             0.079238     -0.099061     -0.049325
H             0.371241     -0.248622      0.234239
O            -0.201089     -0.251124     -0.104682
O            -0.303995     -0.084598      0.157835
O             0.193353     -0.081509      0.088289
O             0.301811     -0.251358     -0.175326
O            -0.060634     -0.251784      0.140942
O            -0.433264     -0.084309     -0.098362
O             0.049481     -0.083483     -0.152913
O             0.434483     -0.250812      0.086262
Fe            0.133060      0.081990      0.225842
Fe            0.343480      0.265565     -0.025065
Fe           -0.136042      0.254225     -0.212577
Fe           -0.366768      0.092436      0.021262
H            -0.077338      0.067651      0.047432
H            -0.413822      0.251559     -0.206485
H             0.094029      0.254831     -0.051160
H             0.403035      0.083108      0.199458
O            -0.196859      0.074190     -0.096350
O            -0.299359      0.248881      0.157341
O             0.186478      0.254805      0.097100
O             0.291181      0.081065     -0.166673
O            -0.065046      0.083104      0.153813
O            -0.443312      0.246738     -0.106889
O             0.055465      0.238954     -0.143654
O             0.444354      0.088397      0.099353
Fe            0.147339      0.405194      0.245189
Fe            0.361187     -0.411729     -0.036702
Fe           -0.144104     -0.422166     -0.223464
Fe           -0.362219      0.410309      0.042007
H            -0.092250      0.391733      0.064144
H            -0.395374     -0.429799     -0.207750
H             0.079529     -0.420784     -0.048033
H             0.403977      0.418253      0.202199
O            -0.197213      0.419647     -0.092139
O            -0.320081     -0.412752      0.165730
O             0.187991     -0.438892      0.093162
O             0.317860      0.417745     -0.166511
O            -0.059557      0.409017      0.159753
O            -0.433932     -0.433251     -0.105287
O             0.058005     -0.414012     -0.154074
O             0.446749      0.424608      0.105778
Fe            0.135803     -0.239713     -0.293466
Fe            0.365128     -0.073814      0.483563
Fe           -0.137338     -0.101921      0.279684
Fe           -0.348087     -0.260152     -0.461085
H            -0.094793     -0.247715     -0.462500
H            -0.370263     -0.104815      0.233270
H             0.101354     -0.096234      0.445077
H             0.403468     -0.247333     -0.305202
O            -0.200845     -0.258304      0.407159
O            -0.313804     -0.083265     -0.337785
O             0.203791     -0.066793     -0.401417
O             0.321305     -0.237698      0.332637
O            -0.057968     -0.250434     -0.363247
O            -0.439644     -0.081123      0.397538
O             0.061022     -0.081816      0.350965
O             0.443064     -0.241435     -0.406476
Fe            0.135740      0.096694     -0.285556
H             0.428329      0.081969     -0.273096
Fe           -0.133806      0.241281      0.289187
Fe           -0.349049      0.086351     -0.477631
H            -0.078709      0.086816     -0.459225
H            -0.421647      0.252324      0.302836
H             0.162066      0.246032      0.483298
H             0.413933      0.190228     -0.390266
O            -0.196946      0.065680      0.399615
O            -0.297676      0.244289     -0.342032
O             0.216825      0.256259     -0.422964
O             0.312930      0.095544      0.341715
O            -0.058330      0.074582     -0.357181
O            -0.452820      0.233476      0.402423
O             0.062342      0.245184      0.358270
O             0.449203      0.091894     -0.375035
Fe            0.147958      0.426573     -0.289992
Ni            0.363167     -0.401524      0.477650
Fe           -0.152618     -0.432894      0.286922
Fe           -0.370771      0.411095     -0.471128
H            -0.094919      0.417425     -0.453956
H            -0.429106     -0.428558      0.314490
H             0.108074     -0.421664      0.441622
H             0.424403      0.438790     -0.297737
O            -0.212240      0.413263      0.408009
O            -0.311508     -0.418388     -0.332563
O             0.188096     -0.405737     -0.415952
O             0.325874      0.430603      0.357613
O            -0.057157      0.418744     -0.355670
O            -0.453504     -0.405502      0.413503
O             0.066254     -0.414208      0.339511
O             0.447423      0.447975     -0.398816
H            -0.463470     -0.175502      0.358525
H             0.349002      0.190372      0.365068
H             0.349645      0.361417      0.432250
data_nwchem_pspw

_audit_creation_date   Sat Oct  1 20:24:41 2022
_audit_creation_method    generated by PSPW module of NWChem


_cell_length_a            10.0667
_cell_length_b             9.1552
_cell_length_c             9.2041
_cell_angle_alpha         90.0000
_cell_angle_beta          90.0000
_cell_angle_gamma         90.0000

_symmetry_space_group_name_H-M     P1  

loop_
_atom_site_type_symbol
_atom_site_fract_x
_atom_site_fract_y
_atom_site_fract_z
Fe            0.142560     -0.247456      0.212389
Fe            0.353556     -0.087655     -0.029368
Fe           -0.150324     -0.096076     -0.221216
Fe           -0.364971     -0.262523      0.012538
H            -0.083179     -0.253577      0.040464
H            -0.409343     -0.083229     -0.208599
H             0.081212     -0.075212     -0.046318
H             0.391438     -0.273790      0.275595
O            -0.199997     -0.250503     -0.087193
O            -0.307323     -0.088879      0.138112
O             0.193937     -0.070920      0.104258
O             0.309969     -0.244530     -0.168503
O            -0.058523     -0.244217      0.142962
O            -0.443486     -0.087293     -0.112857
O             0.042722     -0.093901     -0.144545
O             0.460594     -0.256667      0.096935
Fe            0.135197      0.096324      0.219995
Fe            0.354790      0.259631     -0.016070
Fe           -0.161855      0.250452     -0.228026
Fe           -0.359236      0.088112      0.017089
H            -0.094369      0.068977      0.044295
H            -0.408175      0.266091     -0.208126
H             0.088406      0.262433     -0.037884
H             0.399692      0.070562      0.193271
O            -0.197746      0.081098     -0.090472
O            -0.297821      0.242173      0.156759
O             0.177754      0.259351      0.091325
O             0.311703      0.090583     -0.156695
O            -0.052993      0.089874      0.135068
O            -0.442244      0.257135     -0.104972
O             0.060200      0.247745     -0.138188
O             0.447994      0.080086      0.096387
Fe            0.135008      0.428679      0.231697
Fe            0.360241     -0.396468     -0.019615
Fe           -0.143456     -0.416294     -0.221563
Fe           -0.353257      0.414379      0.040101
H            -0.086402      0.405644      0.042172
H            -0.430899     -0.464715     -0.200421
H             0.075616     -0.417955     -0.037598
H             0.427540      0.419648      0.224720
O            -0.191806      0.409645     -0.086933
O            -0.309379     -0.408481      0.158269
O             0.185937     -0.422305      0.095661
O             0.314942      0.405347     -0.155304
O            -0.059386      0.423237      0.142681
O            -0.441121     -0.438419     -0.097754
O             0.052695     -0.402756     -0.139536
O             0.455371      0.417249      0.123865
Fe            0.146045     -0.262621     -0.275078
Fe            0.358786     -0.090664      0.494413
Fe           -0.130244     -0.076385      0.268514
Fe           -0.344874     -0.262858     -0.478200
H            -0.087522     -0.251209     -0.454074
H            -0.349735     -0.107279      0.227225
H             0.085706     -0.090191      0.447175
H             0.437772     -0.219370     -0.288822
O            -0.193000     -0.238658      0.403577
O            -0.309612     -0.077621     -0.346958
O             0.196332     -0.093556     -0.393352
O             0.330375     -0.259045      0.354397
O            -0.050627     -0.260493     -0.354042
O            -0.447110     -0.083798      0.392924
O             0.063195     -0.083013      0.341638
O             0.463856     -0.240028     -0.385056
Fe            0.135964      0.082367     -0.265189
H             0.379084      0.075221     -0.259543
Fe           -0.132805      0.252991      0.274992
Fe           -0.365775      0.080408     -0.489799
H            -0.068868      0.089264     -0.442881
H            -0.401122      0.233528      0.302156
H             0.142923      0.253267     -0.487398
H             0.400169      0.177669     -0.390230
O            -0.204743      0.081688      0.391076
O            -0.319992      0.256253     -0.352005
O             0.196898      0.242811     -0.398188
O             0.320843      0.077731      0.331403
O            -0.063039      0.076420     -0.343758
O            -0.449498      0.243665      0.395489
O             0.064514      0.254449      0.350742
O             0.435601      0.081274     -0.373639
Fe            0.138225      0.408241     -0.265966
Ni            0.373251     -0.417412      0.489447
Fe           -0.148537     -0.412622      0.262758
Fe           -0.359862      0.416732     -0.490784
H            -0.080674      0.412412     -0.451608
H            -0.432370     -0.408015      0.293234
H             0.086913     -0.394520      0.452934
H             0.408936      0.416769     -0.306450
O            -0.198632      0.419332      0.391195
O            -0.282208     -0.407998     -0.358060
O             0.195389     -0.432179     -0.395906
O             0.298887      0.437759      0.344811
O            -0.059740      0.405295     -0.347196
O            -0.453777     -0.419904      0.393720
O             0.052933     -0.396436      0.349751
O             0.461183      0.435402     -0.394277
H            -0.483289     -0.062346      0.299935
H             0.391983      0.148425      0.343549
H             0.321087      0.352484      0.399552