data_nwchem_pspw

_audit_creation_date   Mon Nov 20 17:30:51 2023
_audit_creation_method    generated by PSPW module of NWChem


_cell_length_a            10.0667
_cell_length_b             9.1552
_cell_length_c             9.2041
_cell_angle_alpha         90.0000
_cell_angle_beta          90.0000
_cell_angle_gamma         90.0000

_symmetry_space_group_name_H-M     P1  

loop_
_atom_site_type_symbol
_atom_site_fract_x
_atom_site_fract_y
_atom_site_fract_z
Fe            0.146735     -0.250000      0.224756
Fe            0.353175     -0.083327     -0.025375
Fe           -0.146825     -0.083327     -0.224625
Fe           -0.353265     -0.250000      0.025244
H            -0.085221     -0.250000      0.049134
H            -0.414737     -0.083030     -0.201101
H             0.085263     -0.083030     -0.048899
H             0.414779     -0.250000      0.200866
O            -0.196748     -0.250000     -0.095276
O            -0.303195     -0.083277      0.154599
O             0.196805     -0.083277      0.095401
O             0.303252     -0.250000     -0.154724
O            -0.053396     -0.250000      0.148894
O            -0.446594     -0.082953     -0.101355
O             0.053406     -0.082954     -0.148645
O             0.446604     -0.250000      0.101106
Fe            0.146825      0.083327      0.224625
Fe            0.353265      0.250000     -0.025244
Fe           -0.146735      0.250000     -0.224756
Fe           -0.353175      0.083327      0.025375
H            -0.085263      0.083030      0.048899
H            -0.414779      0.250000     -0.200866
H             0.085221      0.250000     -0.049134
H             0.414737      0.083030      0.201101
O            -0.196805      0.083277     -0.095401
O            -0.303252      0.250000      0.154724
O             0.196748      0.250000      0.095276
O             0.303195      0.083277     -0.154599
O            -0.053406      0.082954      0.148645
O            -0.446604      0.250000     -0.101106
O             0.053396      0.250000     -0.148894
O             0.446594      0.082953      0.101355
Fe            0.146825      0.416673      0.224625
Fe            0.353175     -0.416673     -0.025375
Fe           -0.146825     -0.416673     -0.224625
Fe           -0.353175      0.416673      0.025375
H            -0.085263      0.416970      0.048899
H            -0.414737     -0.416970     -0.201101
H             0.085263     -0.416970     -0.048899
H             0.414737      0.416970      0.201101
O            -0.196805      0.416723     -0.095401
O            -0.303195     -0.416723      0.154599
O             0.196805     -0.416723      0.095401
O             0.303195      0.416723     -0.154599
O            -0.053406      0.417047      0.148645
O            -0.446594     -0.417047     -0.101355
O             0.053406     -0.417047     -0.148645
O             0.446594      0.417046      0.101355
Fe            0.146735     -0.250000     -0.275244
Fe            0.353175     -0.083327      0.474625
Fe           -0.146825     -0.083327      0.275375
Fe           -0.353265     -0.250000     -0.474756
H            -0.085221     -0.250000     -0.450866
H            -0.414737     -0.083030      0.298899
H             0.085263     -0.083030      0.451101
H             0.414779     -0.250000     -0.299134
O            -0.196748     -0.250000      0.404724
O            -0.303195     -0.083277     -0.345401
O             0.196805     -0.083277     -0.404599
O             0.303252     -0.250000      0.345276
O            -0.053396     -0.250000     -0.351106
O            -0.446594     -0.082953      0.398645
O             0.053406     -0.082954      0.351355
O             0.446604     -0.250000     -0.398894
Fe            0.146825      0.083327     -0.275375
Fe            0.353265      0.250000      0.474756
Fe           -0.146735      0.250000      0.275244
Fe           -0.353175      0.083327     -0.474625
H            -0.085263      0.083030     -0.451101
H            -0.414779      0.250000      0.299134
H             0.085221      0.250000      0.450866
H             0.414737      0.083030     -0.298899
O            -0.196805      0.083277      0.404599
O            -0.303252      0.250000     -0.345276
O             0.196748      0.250000     -0.404724
O             0.303195      0.083277      0.345401
O            -0.053406      0.082954     -0.351355
O            -0.446604      0.250000      0.398894
O             0.053396      0.250000      0.351106
O             0.446594      0.082953     -0.398645
Cu            0.146825      0.416673     -0.275375
H             0.353175     -0.416673      0.474625
Fe           -0.146825     -0.416673      0.275375
Fe           -0.353175      0.416673     -0.474625
H            -0.085263      0.416970     -0.451101
H            -0.414737     -0.416970      0.298899
H             0.085263     -0.416970      0.451101
H             0.414737      0.416970     -0.298899
O            -0.196805      0.416723      0.404599
O            -0.303195     -0.416723     -0.345401
O             0.196805     -0.416723     -0.404599
O             0.303195      0.416723      0.345401
O            -0.053406      0.417047     -0.351355
O            -0.446594     -0.417047      0.398645
O             0.053406     -0.417047      0.351355
O             0.446594      0.417046     -0.398645
H             0.200391      0.365788     -0.048061
H             0.303175     -0.416673      0.374625
data_nwchem_pspw

_audit_creation_date   Mon Nov 20 17:33:42 2023
_audit_creation_method    generated by PSPW module of NWChem


_cell_length_a            10.0667
_cell_length_b             9.1552
_cell_length_c             9.2041
_cell_angle_alpha         90.0000
_cell_angle_beta          90.0000
_cell_angle_gamma         90.0000

_symmetry_space_group_name_H-M     P1  

loop_
_atom_site_type_symbol
_atom_site_fract_x
_atom_site_fract_y
_atom_site_fract_z
Fe            0.146735     -0.250000      0.224756
Fe            0.353175     -0.083327     -0.025375
Fe           -0.146825     -0.083327     -0.224625
Fe           -0.353265     -0.250000      0.025244
H            -0.085221     -0.250000      0.049134
H            -0.414737     -0.083030     -0.201101
H             0.085263     -0.083030     -0.048899
H             0.414779     -0.250000      0.200866
O            -0.196748     -0.250000     -0.095276
O            -0.303195     -0.083277      0.154599
O             0.196805     -0.083277      0.095401
O             0.303252     -0.250000     -0.154724
O            -0.053396     -0.250000      0.148894
O            -0.446594     -0.082953     -0.101355
O             0.053406     -0.082954     -0.148645
O             0.446604     -0.250000      0.101106
Fe            0.146825      0.083327      0.224625
Fe            0.353265      0.250000     -0.025244
Fe           -0.146735      0.250000     -0.224756
Fe           -0.353175      0.083327      0.025375
H            -0.085263      0.083030      0.048899
H            -0.414779      0.250000     -0.200866
H             0.085221      0.250000     -0.049134
H             0.414737      0.083030      0.201101
O            -0.196805      0.083277     -0.095401
O            -0.303252      0.250000      0.154724
O             0.196748      0.250000      0.095276
O             0.303195      0.083277     -0.154599
O            -0.053406      0.082954      0.148645
O            -0.446604      0.250000     -0.101106
O             0.053396      0.250000     -0.148894
O             0.446594      0.082953      0.101355
Fe            0.146825      0.416673      0.224625
Fe            0.353175     -0.416673     -0.025375
Fe           -0.146825     -0.416673     -0.224625
Fe           -0.353175      0.416673      0.025375
H            -0.085263      0.416970      0.048899
H            -0.414737     -0.416970     -0.201101
H             0.085263     -0.416970     -0.048899
H             0.414737      0.416970      0.201101
O            -0.196805      0.416723     -0.095401
O            -0.303195     -0.416723      0.154599
O             0.196805     -0.416723      0.095401
O             0.303195      0.416723     -0.154599
O            -0.053406      0.417047      0.148645
O            -0.446594     -0.417047     -0.101355
O             0.053406     -0.417047     -0.148645
O             0.446594      0.417046      0.101355
Fe            0.146735     -0.250000     -0.275244
Fe            0.353175     -0.083327      0.474625
Fe           -0.146825     -0.083327      0.275375
Fe           -0.353265     -0.250000     -0.474756
H            -0.085221     -0.250000     -0.450866
H            -0.414737     -0.083030      0.298899
H             0.085263     -0.083030      0.451101
H             0.414779     -0.250000     -0.299134
O            -0.196748     -0.250000      0.404724
O            -0.303195     -0.083277     -0.345401
O             0.196805     -0.083277     -0.404599
O             0.303252     -0.250000      0.345276
O            -0.053396     -0.250000     -0.351106
O            -0.446594     -0.082953      0.398645
O             0.053406     -0.082954      0.351355
O             0.446604     -0.250000     -0.398894
Fe            0.146825      0.083327     -0.275375
Fe            0.353265      0.250000      0.474756
Fe           -0.146735      0.250000      0.275244
Fe           -0.353175      0.083327     -0.474625
H            -0.085263      0.083030     -0.451101
H            -0.414779      0.250000      0.299134
H             0.085221      0.250000      0.450866
H             0.414737      0.083030     -0.298899
O            -0.196805      0.083277      0.404599
O            -0.303252      0.250000     -0.345276
O             0.196748      0.250000     -0.404724
O             0.303195      0.083277      0.345401
O            -0.053406      0.082954     -0.351355
O            -0.446604      0.250000      0.398894
O             0.053396      0.250000      0.351106
O             0.446594      0.082953     -0.398645
Cu            0.146825      0.416673     -0.275375
H             0.353175     -0.416673      0.474625
Fe           -0.146825     -0.416673      0.275375
Fe           -0.353175      0.416673     -0.474625
H            -0.085263      0.416970     -0.451101
H            -0.414737     -0.416970      0.298899
H             0.085263     -0.416970      0.451101
H             0.414737      0.416970     -0.298899
O            -0.196805      0.416723      0.404599
O            -0.303195     -0.416723     -0.345401
O             0.196805     -0.416723     -0.404599
O             0.303195      0.416723      0.345401
O            -0.053406      0.417047     -0.351355
O            -0.446594     -0.417047      0.398645
O             0.053406     -0.417047      0.351355
O             0.446594      0.417046     -0.398645
H             0.200391      0.365788     -0.048061
H             0.303175     -0.416673      0.374625
data_nwchem_pspw

_audit_creation_date   Mon Nov 20 17:35:02 2023
_audit_creation_method    generated by PSPW module of NWChem


_cell_length_a            10.0667
_cell_length_b             9.1552
_cell_length_c             9.2041
_cell_angle_alpha         90.0000
_cell_angle_beta          90.0000
_cell_angle_gamma         90.0000

_symmetry_space_group_name_H-M     P1  

loop_
_atom_site_type_symbol
_atom_site_fract_x
_atom_site_fract_y
_atom_site_fract_z
Fe            0.146735     -0.250000      0.224756
Fe            0.353175     -0.083327     -0.025375
Fe           -0.146825     -0.083327     -0.224625
Fe           -0.353265     -0.250000      0.025244
H            -0.085221     -0.250000      0.049134
H            -0.414737     -0.083030     -0.201101
H             0.085263     -0.083030     -0.048899
H             0.414779     -0.250000      0.200866
O            -0.196748     -0.250000     -0.095276
O            -0.303195     -0.083277      0.154599
O             0.196805     -0.083277      0.095401
O             0.303252     -0.250000     -0.154724
O            -0.053396     -0.250000      0.148894
O            -0.446594     -0.082953     -0.101355
O             0.053406     -0.082954     -0.148645
O             0.446604     -0.250000      0.101106
Fe            0.146825      0.083327      0.224625
Fe            0.353265      0.250000     -0.025244
Fe           -0.146735      0.250000     -0.224756
Fe           -0.353175      0.083327      0.025375
H            -0.085263      0.083030      0.048899
H            -0.414779      0.250000     -0.200866
H             0.085221      0.250000     -0.049134
H             0.414737      0.083030      0.201101
O            -0.196805      0.083277     -0.095401
O            -0.303252      0.250000      0.154724
O             0.196748      0.250000      0.095276
O             0.303195      0.083277     -0.154599
O            -0.053406      0.082954      0.148645
O            -0.446604      0.250000     -0.101106
O             0.053396      0.250000     -0.148894
O             0.446594      0.082953      0.101355
Fe            0.146825      0.416673      0.224625
Fe            0.353175     -0.416673     -0.025375
Fe           -0.146825     -0.416673     -0.224625
Fe           -0.353175      0.416673      0.025375
H            -0.085263      0.416970      0.048899
H            -0.414737     -0.416970     -0.201101
H             0.085263     -0.416970     -0.048899
H             0.414737      0.416970      0.201101
O            -0.196805      0.416723     -0.095401
O            -0.303195     -0.416723      0.154599
O             0.196805     -0.416723      0.095401
O             0.303195      0.416723     -0.154599
O            -0.053406      0.417047      0.148645
O            -0.446594     -0.417047     -0.101355
O             0.053406     -0.417047     -0.148645
O             0.446594      0.417046      0.101355
Fe            0.146735     -0.250000     -0.275244
Fe            0.353175     -0.083327      0.474625
Fe           -0.146825     -0.083327      0.275375
Fe           -0.353265     -0.250000     -0.474756
H            -0.085221     -0.250000     -0.450866
H            -0.414737     -0.083030      0.298899
H             0.085263     -0.083030      0.451101
H             0.414779     -0.250000     -0.299134
O            -0.196748     -0.250000      0.404724
O            -0.303195     -0.083277     -0.345401
O             0.196805     -0.083277     -0.404599
O             0.303252     -0.250000      0.345276
O            -0.053396     -0.250000     -0.351106
O            -0.446594     -0.082953      0.398645
O             0.053406     -0.082954      0.351355
O             0.446604     -0.250000     -0.398894
Fe            0.146825      0.083327     -0.275375
Fe            0.353265      0.250000      0.474756
Fe           -0.146735      0.250000      0.275244
Fe           -0.353175      0.083327     -0.474625
H            -0.085263      0.083030     -0.451101
H            -0.414779      0.250000      0.299134
H             0.085221      0.250000      0.450866
H             0.414737      0.083030     -0.298899
O            -0.196805      0.083277      0.404599
O            -0.303252      0.250000     -0.345276
O             0.196748      0.250000     -0.404724
O             0.303195      0.083277      0.345401
O            -0.053406      0.082954     -0.351355
O            -0.446604      0.250000      0.398894
O             0.053396      0.250000      0.351106
O             0.446594      0.082953     -0.398645
Cu            0.146825      0.416673     -0.275375
H             0.353175     -0.416673      0.474625
Fe           -0.146825     -0.416673      0.275375
Fe           -0.353175      0.416673     -0.474625
H            -0.085263      0.416970     -0.451101
H            -0.414737     -0.416970      0.298899
H             0.085263     -0.416970      0.451101
H             0.414737      0.416970     -0.298899
O            -0.196805      0.416723      0.404599
O            -0.303195     -0.416723     -0.345401
O             0.196805     -0.416723     -0.404599
O             0.303195      0.416723      0.345401
O            -0.053406      0.417047     -0.351355
O            -0.446594     -0.417047      0.398645
O             0.053406     -0.417047      0.351355
O             0.446594      0.417046     -0.398645
H             0.200391      0.365788     -0.048061
H             0.303175     -0.416673      0.374625
data_nwchem_pspw

_audit_creation_date   Mon Nov 20 17:36:04 2023
_audit_creation_method    generated by PSPW module of NWChem


_cell_length_a            10.0667
_cell_length_b             9.1552
_cell_length_c             9.2041
_cell_angle_alpha         90.0000
_cell_angle_beta          90.0000
_cell_angle_gamma         90.0000

_symmetry_space_group_name_H-M     P1  

loop_
_atom_site_type_symbol
_atom_site_fract_x
_atom_site_fract_y
_atom_site_fract_z
Fe            0.146735     -0.250000      0.224756
Fe            0.353175     -0.083327     -0.025375
Fe           -0.146825     -0.083327     -0.224625
Fe           -0.353265     -0.250000      0.025244
H            -0.085221     -0.250000      0.049134
H            -0.414737     -0.083030     -0.201101
H             0.085263     -0.083030     -0.048899
H             0.414779     -0.250000      0.200866
O            -0.196748     -0.250000     -0.095276
O            -0.303195     -0.083277      0.154599
O             0.196805     -0.083277      0.095401
O             0.303252     -0.250000     -0.154724
O            -0.053396     -0.250000      0.148894
O            -0.446594     -0.082953     -0.101355
O             0.053406     -0.082954     -0.148645
O             0.446604     -0.250000      0.101106
Fe            0.146825      0.083327      0.224625
Fe            0.353265      0.250000     -0.025244
Fe           -0.146735      0.250000     -0.224756
Fe           -0.353175      0.083327      0.025375
H            -0.085263      0.083030      0.048899
H            -0.414779      0.250000     -0.200866
H             0.085221      0.250000     -0.049134
H             0.414737      0.083030      0.201101
O            -0.196805      0.083277     -0.095401
O            -0.303252      0.250000      0.154724
O             0.196748      0.250000      0.095276
O             0.303195      0.083277     -0.154599
O            -0.053406      0.082954      0.148645
O            -0.446604      0.250000     -0.101106
O             0.053396      0.250000     -0.148894
O             0.446594      0.082953      0.101355
Fe            0.146825      0.416673      0.224625
Fe            0.353175     -0.416673     -0.025375
Fe           -0.146825     -0.416673     -0.224625
Fe           -0.353175      0.416673      0.025375
H            -0.085263      0.416970      0.048899
H            -0.414737     -0.416970     -0.201101
H             0.085263     -0.416970     -0.048899
H             0.414737      0.416970      0.201101
O            -0.196805      0.416723     -0.095401
O            -0.303195     -0.416723      0.154599
O             0.196805     -0.416723      0.095401
O             0.303195      0.416723     -0.154599
O            -0.053406      0.417047      0.148645
O            -0.446594     -0.417047     -0.101355
O             0.053406     -0.417047     -0.148645
O             0.446594      0.417046      0.101355
Fe            0.146735     -0.250000     -0.275244
Fe            0.353175     -0.083327      0.474625
Fe           -0.146825     -0.083327      0.275375
Fe           -0.353265     -0.250000     -0.474756
H            -0.085221     -0.250000     -0.450866
H            -0.414737     -0.083030      0.298899
H             0.085263     -0.083030      0.451101
H             0.414779     -0.250000     -0.299134
O            -0.196748     -0.250000      0.404724
O            -0.303195     -0.083277     -0.345401
O             0.196805     -0.083277     -0.404599
O             0.303252     -0.250000      0.345276
O            -0.053396     -0.250000     -0.351106
O            -0.446594     -0.082953      0.398645
O             0.053406     -0.082954      0.351355
O             0.446604     -0.250000     -0.398894
Fe            0.146825      0.083327     -0.275375
Fe            0.353265      0.250000      0.474756
Fe           -0.146735      0.250000      0.275244
Fe           -0.353175      0.083327     -0.474625
H            -0.085263      0.083030     -0.451101
H            -0.414779      0.250000      0.299134
H             0.085221      0.250000      0.450866
H             0.414737      0.083030     -0.298899
O            -0.196805      0.083277      0.404599
O            -0.303252      0.250000     -0.345276
O             0.196748      0.250000     -0.404724
O             0.303195      0.083277      0.345401
O            -0.053406      0.082954     -0.351355
O            -0.446604      0.250000      0.398894
O             0.053396      0.250000      0.351106
O             0.446594      0.082953     -0.398645
Cu            0.146825      0.416673     -0.275375
H             0.353175     -0.416673      0.474625
Fe           -0.146825     -0.416673      0.275375
Fe           -0.353175      0.416673     -0.474625
H            -0.085263      0.416970     -0.451101
H            -0.414737     -0.416970      0.298899
H             0.085263     -0.416970      0.451101
H             0.414737      0.416970     -0.298899
O            -0.196805      0.416723      0.404599
O            -0.303195     -0.416723     -0.345401
O             0.196805     -0.416723     -0.404599
O             0.303195      0.416723      0.345401
O            -0.053406      0.417047     -0.351355
O            -0.446594     -0.417047      0.398645
O             0.053406     -0.417047      0.351355
O             0.446594      0.417046     -0.398645
H             0.200391      0.365788     -0.048061
H             0.303175     -0.416673      0.374625
data_nwchem_pspw

_audit_creation_date   Mon Nov 20 17:47:29 2023
_audit_creation_method    generated by PSPW module of NWChem


_cell_length_a            10.0667
_cell_length_b             9.1552
_cell_length_c             9.2041
_cell_angle_alpha         90.0000
_cell_angle_beta          90.0000
_cell_angle_gamma         90.0000

_symmetry_space_group_name_H-M     P1  

loop_
_atom_site_type_symbol
_atom_site_fract_x
_atom_site_fract_y
_atom_site_fract_z
Fe            0.146735     -0.250000      0.224756
Fe            0.353175     -0.083327     -0.025375
Fe           -0.146825     -0.083327     -0.224625
Fe           -0.353265     -0.250000      0.025244
H            -0.085221     -0.250000      0.049134
H            -0.414737     -0.083030     -0.201101
H             0.085263     -0.083030     -0.048899
H             0.414779     -0.250000      0.200866
O            -0.196748     -0.250000     -0.095276
O            -0.303195     -0.083277      0.154599
O             0.196805     -0.083277      0.095401
O             0.303252     -0.250000     -0.154724
O            -0.053396     -0.250000      0.148894
O            -0.446594     -0.082953     -0.101355
O             0.053406     -0.082954     -0.148645
O             0.446604     -0.250000      0.101106
Fe            0.146825      0.083327      0.224625
Fe            0.353265      0.250000     -0.025244
Fe           -0.146735      0.250000     -0.224756
Fe           -0.353175      0.083327      0.025375
H            -0.085263      0.083030      0.048899
H            -0.414779      0.250000     -0.200866
H             0.085221      0.250000     -0.049134
H             0.414737      0.083030      0.201101
O            -0.196805      0.083277     -0.095401
O            -0.303252      0.250000      0.154724
O             0.196748      0.250000      0.095276
O             0.303195      0.083277     -0.154599
O            -0.053406      0.082954      0.148645
O            -0.446604      0.250000     -0.101106
O             0.053396      0.250000     -0.148894
O             0.446594      0.082953      0.101355
Fe            0.146825      0.416673      0.224625
Fe            0.353175     -0.416673     -0.025375
Fe           -0.146825     -0.416673     -0.224625
Fe           -0.353175      0.416673      0.025375
H            -0.085263      0.416970      0.048899
H            -0.414737     -0.416970     -0.201101
H             0.085263     -0.416970     -0.048899
H             0.414737      0.416970      0.201101
O            -0.196805      0.416723     -0.095401
O            -0.303195     -0.416723      0.154599
O             0.196805     -0.416723      0.095401
O             0.303195      0.416723     -0.154599
O            -0.053406      0.417047      0.148645
O            -0.446594     -0.417047     -0.101355
O             0.053406     -0.417047     -0.148645
O             0.446594      0.417046      0.101355
Fe            0.146735     -0.250000     -0.275244
Fe            0.353175     -0.083327      0.474625
Fe           -0.146825     -0.083327      0.275375
Fe           -0.353265     -0.250000     -0.474756
H            -0.085221     -0.250000     -0.450866
H            -0.414737     -0.083030      0.298899
H             0.085263     -0.083030      0.451101
H             0.414779     -0.250000     -0.299134
O            -0.196748     -0.250000      0.404724
O            -0.303195     -0.083277     -0.345401
O             0.196805     -0.083277     -0.404599
O             0.303252     -0.250000      0.345276
O            -0.053396     -0.250000     -0.351106
O            -0.446594     -0.082953      0.398645
O             0.053406     -0.082954      0.351355
O             0.446604     -0.250000     -0.398894
Fe            0.146825      0.083327     -0.275375
Fe            0.353265      0.250000      0.474756
Fe           -0.146735      0.250000      0.275244
Fe           -0.353175      0.083327     -0.474625
H            -0.085263      0.083030     -0.451101
H            -0.414779      0.250000      0.299134
H             0.085221      0.250000      0.450866
H             0.414737      0.083030     -0.298899
O            -0.196805      0.083277      0.404599
O            -0.303252      0.250000     -0.345276
O             0.196748      0.250000     -0.404724
O             0.303195      0.083277      0.345401
O            -0.053406      0.082954     -0.351355
O            -0.446604      0.250000      0.398894
O             0.053396      0.250000      0.351106
O             0.446594      0.082953     -0.398645
Cu            0.146825      0.416673     -0.275375
H             0.353175     -0.416673      0.474625
Fe           -0.146825     -0.416673      0.275375
Fe           -0.353175      0.416673     -0.474625
H            -0.085263      0.416970     -0.451101
H            -0.414737     -0.416970      0.298899
H             0.085263     -0.416970      0.451101
H             0.414737      0.416970     -0.298899
O            -0.196805      0.416723      0.404599
O            -0.303195     -0.416723     -0.345401
O             0.196805     -0.416723     -0.404599
O             0.303195      0.416723      0.345401
O            -0.053406      0.417047     -0.351355
O            -0.446594     -0.417047      0.398645
O             0.053406     -0.417047      0.351355
O             0.446594      0.417046     -0.398645
H             0.200391      0.365788     -0.048061
H             0.303175     -0.416673      0.374625
data_nwchem_pspw

_audit_creation_date   Mon Nov 20 18:29:35 2023
_audit_creation_method    generated by PSPW module of NWChem


_cell_length_a            10.0667
_cell_length_b             9.1552
_cell_length_c             9.2041
_cell_angle_alpha         90.0000
_cell_angle_beta          90.0000
_cell_angle_gamma         90.0000

_symmetry_space_group_name_H-M     P1  

loop_
_atom_site_type_symbol
_atom_site_fract_x
_atom_site_fract_y
_atom_site_fract_z
Fe            0.146735     -0.250000      0.224756
Fe            0.353175     -0.083327     -0.025375
Fe           -0.146825     -0.083327     -0.224625
Fe           -0.353265     -0.250000      0.025244
H            -0.085221     -0.250000      0.049134
H            -0.414737     -0.083030     -0.201101
H             0.085263     -0.083030     -0.048899
H             0.414779     -0.250000      0.200866
O            -0.196748     -0.250000     -0.095276
O            -0.303195     -0.083277      0.154599
O             0.196805     -0.083277      0.095401
O             0.303252     -0.250000     -0.154724
O            -0.053396     -0.250000      0.148894
O            -0.446594     -0.082953     -0.101355
O             0.053406     -0.082954     -0.148645
O             0.446604     -0.250000      0.101106
Fe            0.146825      0.083327      0.224625
Fe            0.353265      0.250000     -0.025244
Fe           -0.146735      0.250000     -0.224756
Fe           -0.353175      0.083327      0.025375
H            -0.085263      0.083030      0.048899
H            -0.414779      0.250000     -0.200866
H             0.085221      0.250000     -0.049134
H             0.414737      0.083030      0.201101
O            -0.196805      0.083277     -0.095401
O            -0.303252      0.250000      0.154724
O             0.196748      0.250000      0.095276
O             0.303195      0.083277     -0.154599
O            -0.053406      0.082954      0.148645
O            -0.446604      0.250000     -0.101106
O             0.053396      0.250000     -0.148894
O             0.446594      0.082953      0.101355
Fe            0.146825      0.416673      0.224625
Fe            0.353175     -0.416673     -0.025375
Fe           -0.146825     -0.416673     -0.224625
Fe           -0.353175      0.416673      0.025375
H            -0.085263      0.416970      0.048899
H            -0.414737     -0.416970     -0.201101
H             0.085263     -0.416970     -0.048899
H             0.414737      0.416970      0.201101
O            -0.196805      0.416723     -0.095401
O            -0.303195     -0.416723      0.154599
O             0.196805     -0.416723      0.095401
O             0.303195      0.416723     -0.154599
O            -0.053406      0.417047      0.148645
O            -0.446594     -0.417047     -0.101355
O             0.053406     -0.417047     -0.148645
O             0.446594      0.417046      0.101355
Fe            0.146735     -0.250000     -0.275244
Fe            0.353175     -0.083327      0.474625
Fe           -0.146825     -0.083327      0.275375
Fe           -0.353265     -0.250000     -0.474756
H            -0.085221     -0.250000     -0.450866
H            -0.414737     -0.083030      0.298899
H             0.085263     -0.083030      0.451101
H             0.414779     -0.250000     -0.299134
O            -0.196748     -0.250000      0.404724
O            -0.303195     -0.083277     -0.345401
O             0.196805     -0.083277     -0.404599
O             0.303252     -0.250000      0.345276
O            -0.053396     -0.250000     -0.351106
O            -0.446594     -0.082953      0.398645
O             0.053406     -0.082954      0.351355
O             0.446604     -0.250000     -0.398894
Fe            0.146825      0.083327     -0.275375
Fe            0.353265      0.250000      0.474756
Fe           -0.146735      0.250000      0.275244
Fe           -0.353175      0.083327     -0.474625
H            -0.085263      0.083030     -0.451101
H            -0.414779      0.250000      0.299134
H             0.085221      0.250000      0.450866
H             0.414737      0.083030     -0.298899
O            -0.196805      0.083277      0.404599
O            -0.303252      0.250000     -0.345276
O             0.196748      0.250000     -0.404724
O             0.303195      0.083277      0.345401
O            -0.053406      0.082954     -0.351355
O            -0.446604      0.250000      0.398894
O             0.053396      0.250000      0.351106
O             0.446594      0.082953     -0.398645
Cu            0.146825      0.416673     -0.275375
H             0.353175     -0.416673      0.474625
Fe           -0.146825     -0.416673      0.275375
Fe           -0.353175      0.416673     -0.474625
H            -0.085263      0.416970     -0.451101
H            -0.414737     -0.416970      0.298899
H             0.085263     -0.416970      0.451101
H             0.414737      0.416970     -0.298899
O            -0.196805      0.416723      0.404599
O            -0.303195     -0.416723     -0.345401
O             0.196805     -0.416723     -0.404599
O             0.303195      0.416723      0.345401
O            -0.053406      0.417047     -0.351355
O            -0.446594     -0.417047      0.398645
O             0.053406     -0.417047      0.351355
O             0.446594      0.417046     -0.398645
H             0.200391      0.365788     -0.048061
H             0.303175     -0.416673      0.374625
data_nwchem_pspw

_audit_creation_date   Mon Nov 20 20:47:38 2023
_audit_creation_method    generated by PSPW module of NWChem


_cell_length_a            10.0667
_cell_length_b             9.1552
_cell_length_c             9.2041
_cell_angle_alpha         90.0000
_cell_angle_beta          90.0000
_cell_angle_gamma         90.0000

_symmetry_space_group_name_H-M     P1  

loop_
_atom_site_type_symbol
_atom_site_fract_x
_atom_site_fract_y
_atom_site_fract_z
Fe            0.142350     -0.251713      0.227627
Fe            0.344453     -0.093107     -0.025580
Fe           -0.157673     -0.089812     -0.240903
Fe           -0.343315     -0.245703      0.030282
H            -0.100694     -0.239598      0.044021
H            -0.425048     -0.059275     -0.197627
H             0.075592     -0.076987     -0.059396
H             0.410702     -0.222355      0.196601
O            -0.206842     -0.248423     -0.103687
O            -0.299081     -0.090292      0.153075
O             0.182396     -0.081669      0.100566
O             0.301699     -0.255712     -0.156841
O            -0.057022     -0.247648      0.139121
O            -0.450412     -0.073707     -0.097802
O             0.045216     -0.088744     -0.159339
O             0.445662     -0.243411      0.099255
Fe            0.142581      0.084172      0.245602
Fe            0.355331      0.242666     -0.031868
Fe           -0.140261      0.260796     -0.215799
Fe           -0.347780      0.077093      0.018228
H            -0.069481      0.100495      0.062432
H            -0.387827      0.247771     -0.202040
H             0.099235      0.210593     -0.063767
H             0.446086      0.110159      0.200645
O            -0.194966      0.085819     -0.100005
O            -0.289339      0.246647      0.139471
O             0.195093      0.241925      0.099948
O             0.292753      0.071793     -0.161093
O            -0.053165      0.081418      0.163906
O            -0.433647      0.249207     -0.107414
O             0.054335      0.228554     -0.154770
O             0.452581      0.075903      0.102881
Fe            0.162263      0.406467      0.224601
Fe            0.361050     -0.421795     -0.028957
Fe           -0.146949     -0.422681     -0.234279
Fe           -0.367081      0.414721      0.030951
H            -0.055637      0.442764      0.060221
H            -0.418020     -0.393843     -0.200174
H             0.023407     -0.294678     -0.072302
H             0.399779      0.398065      0.193635
O            -0.198829      0.424415     -0.082618
O            -0.291050     -0.415748      0.141843
O             0.198659     -0.421628      0.092547
O             0.318474      0.413556     -0.153305
O            -0.041940      0.417175      0.161840
O            -0.446775     -0.408294     -0.100100
O             0.050256     -0.387117     -0.111732
O             0.443257      0.418104      0.098835
Fe            0.137377     -0.261266     -0.274587
Fe            0.359161     -0.087396      0.491160
Fe           -0.158094     -0.081540      0.275944
Fe           -0.370008     -0.261416     -0.483211
H            -0.096645     -0.267782     -0.447850
H            -0.411387     -0.073133      0.292948
H             0.053844     -0.074807      0.449577
H             0.403854     -0.265686     -0.307002
O            -0.192918     -0.248216      0.404800
O            -0.306215     -0.079526     -0.361414
O             0.198623     -0.082828     -0.399171
O             0.315194     -0.238486      0.337531
O            -0.058213     -0.253921     -0.349638
O            -0.454461     -0.074678      0.389688
O             0.033080     -0.095360      0.349719
O             0.460897     -0.224408     -0.379763
Fe            0.137836      0.080453     -0.297921
Fe            0.360108      0.271472      0.488767
Fe           -0.151235      0.256554      0.272605
Fe           -0.347905      0.087257     -0.479832
H            -0.101164      0.083557     -0.465965
H            -0.412861      0.246719      0.300920
H             0.087233      0.251863      0.455179
H             0.419166      0.091863     -0.307236
O            -0.195203      0.089359      0.404679
O            -0.292686      0.254097     -0.349386
O             0.193403      0.245227     -0.406083
O             0.297469      0.067450      0.358790
O            -0.057825      0.079400     -0.369794
O            -0.452589      0.252198      0.395583
O             0.061612      0.259946      0.353197
O             0.453573      0.105138     -0.405233
Cu            0.150674      0.407266     -0.263681
H             0.281939     -0.440797     -0.418040
Fe           -0.138422     -0.416426      0.274246
Fe           -0.353799      0.422479     -0.478925
H            -0.091113      0.411239     -0.435294
H            -0.380972     -0.406227      0.296668
H             0.103629     -0.388555      0.448840
H             0.428383      0.414480     -0.297121
O            -0.193326      0.420586      0.403975
O            -0.304711     -0.409246     -0.343679
O             0.189211     -0.415890     -0.402923
O             0.311990      0.413814      0.342008
O            -0.052779      0.425401     -0.337339
O            -0.421186     -0.424673      0.390677
O             0.060632     -0.413734      0.356858
O             0.453708      0.428377     -0.401292
H             0.134469     -0.424223      0.005887
H             0.362271     -0.326808      0.360868
data_nwchem_pspw

_audit_creation_date   Mon Nov 20 22:47:08 2023
_audit_creation_method    generated by PSPW module of NWChem


_cell_length_a            10.0667
_cell_length_b             9.1552
_cell_length_c             9.2041
_cell_angle_alpha         90.0000
_cell_angle_beta          90.0000
_cell_angle_gamma         90.0000

_symmetry_space_group_name_H-M     P1  

loop_
_atom_site_type_symbol
_atom_site_fract_x
_atom_site_fract_y
_atom_site_fract_z
Fe            0.122496     -0.249284      0.219241
Fe            0.343817     -0.086084     -0.022719
Fe           -0.149434     -0.082136     -0.240020
Fe           -0.347203     -0.240011      0.020599
H            -0.116614     -0.220792      0.055489
H            -0.418144     -0.076815     -0.193991
H             0.082628     -0.068530     -0.053931
H             0.403219     -0.279605      0.190955
O            -0.192519     -0.250835     -0.103882
O            -0.305770     -0.077810      0.155253
O             0.177812     -0.098658      0.088536
O             0.309451     -0.251930     -0.160503
O            -0.067549     -0.250982      0.146261
O            -0.451227     -0.085728     -0.095345
O             0.054254     -0.070024     -0.155675
O             0.441089     -0.255685      0.095093
Fe            0.149113      0.078163      0.227870
Fe            0.355142      0.250630     -0.009034
Fe           -0.142249      0.256005     -0.230957
Fe           -0.348231      0.088305      0.023027
H            -0.099629      0.082234      0.046558
H            -0.443131      0.279111     -0.194278
H             0.084475      0.247745     -0.041317
H             0.422932      0.052454      0.208589
O            -0.193819      0.085104     -0.098611
O            -0.298554      0.255017      0.161070
O             0.194085      0.244652      0.097554
O             0.291803      0.083554     -0.143870
O            -0.055578      0.082761      0.141961
O            -0.451598      0.256509     -0.093503
O             0.062626      0.261762     -0.143259
O             0.446107      0.064757      0.107299
Fe            0.145198      0.407303      0.225370
Fe            0.382339     -0.422242     -0.041100
Fe           -0.142293     -0.416033     -0.235634
Fe           -0.342402      0.418983      0.026466
H            -0.070386      0.401910      0.044690
H            -0.394828     -0.426559     -0.199859
H            -0.003759     -0.320973     -0.056917
H             0.420912      0.428355      0.203677
O            -0.206065      0.423355     -0.113676
O            -0.287951     -0.410373      0.146185
O             0.208704     -0.423712      0.105084
O             0.301871      0.423575     -0.154874
O            -0.041465      0.412658      0.143195
O            -0.430017     -0.418984     -0.100994
O             0.043497     -0.380680     -0.124986
O             0.450928      0.402391      0.105570
Fe            0.151003     -0.256834     -0.261369
Fe            0.345809     -0.087181      0.491892
Fe           -0.145294     -0.078684      0.279022
Fe           -0.366327     -0.254328     -0.494577
H            -0.068121     -0.252992     -0.457896
H            -0.428461     -0.065924      0.284667
H             0.082849     -0.084805      0.446047
H             0.439336     -0.234398     -0.309256
O            -0.203900     -0.253807      0.392420
O            -0.312573     -0.091050     -0.343372
O             0.185445     -0.073335     -0.384739
O             0.280695     -0.244032      0.348718
O            -0.052064     -0.235422     -0.357945
O            -0.453608     -0.068447      0.386854
O             0.048375     -0.077801      0.348469
O             0.436989     -0.268006     -0.408551
Fe            0.150874      0.087761     -0.267688
Fe            0.355341      0.263309      0.461334
Fe           -0.147091      0.244524      0.287693
Fe           -0.358728      0.080222     -0.474767
H            -0.094520      0.095926     -0.459493
H            -0.390759      0.265397      0.310233
H             0.094682      0.219796      0.461879
H             0.418720      0.126032     -0.302870
O            -0.187798      0.080194      0.421489
O            -0.303903      0.239790     -0.346535
O             0.196286      0.225728     -0.402062
O             0.288800      0.068101      0.355353
O            -0.051938      0.104808     -0.361226
O            -0.443797      0.245382      0.394594
O             0.044199      0.220585      0.369857
O             0.448468      0.068911     -0.383270
Cu            0.149399      0.418686     -0.275173
H             0.303362     -0.415029     -0.399606
Fe           -0.142907     -0.420057      0.271151
Fe           -0.360666      0.422468     -0.474347
H            -0.052132      0.414180     -0.461201
H            -0.397933     -0.414514      0.278950
H             0.095130     -0.413321      0.450286
H             0.401847      0.395854     -0.301212
O            -0.198571      0.416599      0.406347
O            -0.295506     -0.412379     -0.365274
O             0.209210     -0.414984     -0.383344
O             0.287354      0.419273      0.360193
O            -0.031711      0.432079     -0.358573
O            -0.425222     -0.423481      0.379504
O             0.050516     -0.443041      0.360857
O             0.462296      0.385168     -0.383863
H             0.147447     -0.427050      0.015505
H             0.299047     -0.345288      0.370645
data_nwchem_pspw

_audit_creation_date   Tue Nov 21 00:50:03 2023
_audit_creation_method    generated by PSPW module of NWChem


_cell_length_a            10.0667
_cell_length_b             9.1552
_cell_length_c             9.2041
_cell_angle_alpha         90.0000
_cell_angle_beta          90.0000
_cell_angle_gamma         90.0000

_symmetry_space_group_name_H-M     P1  

loop_
_atom_site_type_symbol
_atom_site_fract_x
_atom_site_fract_y
_atom_site_fract_z
Fe            0.145601     -0.237708      0.230710
Fe            0.354978     -0.071479     -0.030142
Fe           -0.149840     -0.086702     -0.234723
Fe           -0.354451     -0.263509      0.032149
H            -0.094240     -0.238382      0.062685
H            -0.428247     -0.102854     -0.201856
H             0.075323     -0.086605     -0.049204
H             0.394483     -0.238225      0.192161
O            -0.189952     -0.255486     -0.099488
O            -0.308165     -0.090807      0.146714
O             0.196901     -0.083527      0.097393
O             0.287254     -0.234841     -0.148955
O            -0.043711     -0.235815      0.154989
O            -0.445237     -0.072324     -0.104371
O             0.052511     -0.086657     -0.152851
O             0.438536     -0.255388      0.098152
Fe            0.147643      0.081375      0.225582
Fe            0.348740      0.257423     -0.031361
Fe           -0.150914      0.251554     -0.221944
Fe           -0.351172      0.091753      0.027496
H            -0.087747      0.097178      0.058247
H            -0.427090      0.277576     -0.195698
H             0.058256      0.244282     -0.052314
H             0.419895      0.084646      0.203646
O            -0.185154      0.075494     -0.087893
O            -0.302383      0.268225      0.174798
O             0.186240      0.235745      0.091591
O             0.290129      0.088252     -0.147440
O            -0.059876      0.074350      0.156217
O            -0.437745      0.253970     -0.094213
O             0.044021      0.254650     -0.155476
O             0.451397      0.091957      0.102468
Fe            0.147270      0.396525      0.234084
Fe            0.356778     -0.415806     -0.047401
Fe           -0.150442     -0.420825     -0.232359
Fe           -0.337630      0.421087      0.030814
H            -0.058288      0.417938      0.053488
H            -0.394556     -0.418756     -0.204041
H             0.013304     -0.304784     -0.075461
H             0.410340      0.435767      0.184086
O            -0.189541      0.419250     -0.098440
O            -0.279519     -0.414018      0.157504
O             0.199767     -0.419970      0.090393
O             0.295095      0.414088     -0.155012
O            -0.037902      0.404340      0.154428
O            -0.437503     -0.410026     -0.107341
O             0.046717     -0.393104     -0.118612
O             0.454694      0.426317      0.091437
Fe            0.147146     -0.252480     -0.288327
Fe            0.369760     -0.075063      0.477889
Fe           -0.151943     -0.084608      0.269499
Fe           -0.353564     -0.262288     -0.474148
H            -0.094692     -0.251897     -0.458281
H            -0.408256     -0.091433      0.290409
H             0.080518     -0.111081      0.459887
H             0.430027     -0.213705     -0.307669
O            -0.175974     -0.255510      0.402778
O            -0.305911     -0.095020     -0.342532
O             0.201333     -0.088409     -0.409786
O             0.310139     -0.240165      0.349534
O            -0.062600     -0.263727     -0.358505
O            -0.447589     -0.075203      0.388180
O             0.048220     -0.091195      0.362135
O             0.457077     -0.244670     -0.402913
Fe            0.147567      0.076067     -0.275535
Fe            0.350360      0.254489      0.487968
Fe           -0.151357      0.248688      0.284173
Fe           -0.354591      0.081533     -0.471950
H            -0.088945      0.087639     -0.465894
H            -0.423231      0.249430      0.300737
H             0.079975      0.249784      0.454001
H             0.407996      0.079285     -0.300384
O            -0.194059      0.077028      0.405723
O            -0.309275      0.251348     -0.348163
O             0.185133      0.220049     -0.408849
O             0.304234      0.079095      0.346538
O            -0.052178      0.095524     -0.366080
O            -0.444507      0.241553      0.402880
O             0.042603      0.243533      0.357035
O             0.446625      0.079780     -0.396890
Cu            0.131545      0.415924     -0.273600
H             0.284882     -0.431886     -0.415322
Fe           -0.127114     -0.416806      0.283128
Fe           -0.363562      0.419420     -0.479133
H            -0.074634      0.403275     -0.459206
H            -0.387073     -0.404253      0.296734
H             0.092644     -0.404957      0.441794
H             0.413100      0.420522     -0.298924
O            -0.203764      0.424140      0.404669
O            -0.309502     -0.420089     -0.347529
O             0.192408     -0.419546     -0.403671
O             0.293960      0.397738      0.341947
O            -0.057288      0.413166     -0.356849
O            -0.439792     -0.408619      0.384668
O             0.062652     -0.422751      0.343408
O             0.444437      0.414427     -0.398385
H             0.123856     -0.412166      0.012528
H             0.377587     -0.311800      0.376271
data_nwchem_pspw

_audit_creation_date   Tue Nov 21 02:53:03 2023
_audit_creation_method    generated by PSPW module of NWChem


_cell_length_a            10.0667
_cell_length_b             9.1552
_cell_length_c             9.2041
_cell_angle_alpha         90.0000
_cell_angle_beta          90.0000
_cell_angle_gamma         90.0000

_symmetry_space_group_name_H-M     P1  

loop_
_atom_site_type_symbol
_atom_site_fract_x
_atom_site_fract_y
_atom_site_fract_z
Fe            0.159178     -0.248084      0.242588
Fe            0.351555     -0.085296     -0.020435
Fe           -0.144941     -0.081559     -0.222714
Fe           -0.338515     -0.262594      0.042806
H            -0.093161     -0.254410      0.056587
H            -0.429927     -0.115427     -0.190197
H             0.103027     -0.081476     -0.057293
H             0.427599     -0.229057      0.202452
O            -0.197030     -0.262826     -0.091342
O            -0.294287     -0.076781      0.142577
O             0.201808     -0.079304      0.114264
O             0.306594     -0.252096     -0.141686
O            -0.033244     -0.244782      0.140052
O            -0.447721     -0.108575     -0.089960
O             0.054666     -0.069964     -0.146785
O             0.464187     -0.266911      0.113126
Fe            0.144174      0.084889      0.235429
Fe            0.344401      0.243059     -0.017654
Fe           -0.154489      0.261505     -0.235338
Fe           -0.360604      0.079481      0.012104
H            -0.083413      0.118363      0.056657
H            -0.416620      0.262655     -0.194452
H             0.074071      0.259692     -0.071906
H             0.419309      0.086272      0.212363
O            -0.213127      0.078110     -0.100908
O            -0.291580      0.236444      0.144577
O             0.176535      0.242790      0.085718
O             0.297617      0.083450     -0.144198
O            -0.053049      0.098380      0.154217
O            -0.461456      0.242543     -0.104649
O             0.045757      0.248235     -0.172175
O             0.440456      0.091909      0.110054
Fe            0.145497      0.394267      0.238575
Fe            0.386358     -0.426439     -0.047046
Fe           -0.141144     -0.409389     -0.238953
Fe           -0.360283      0.398034      0.027490
H            -0.094395      0.403768      0.053933
H            -0.382830     -0.416729     -0.210013
H             0.029579     -0.351657     -0.050078
H             0.406437      0.436994      0.183772
O            -0.214783      0.417544     -0.113687
O            -0.290332     -0.433086      0.143536
O             0.205569     -0.422444      0.113328
O             0.313727      0.412723     -0.146213
O            -0.066848      0.406483      0.156343
O            -0.428415     -0.420618     -0.114433
O             0.034064     -0.402533     -0.137983
O             0.451474      0.407463      0.095380
Fe            0.158521     -0.260289     -0.280760
Fe            0.351795     -0.068737      0.483522
Fe           -0.147201     -0.086016      0.270302
Fe           -0.375055     -0.238561     -0.477495
H            -0.084258     -0.252159     -0.452131
H            -0.398176     -0.073449      0.299599
H             0.084478     -0.063692      0.453200
H             0.413330     -0.204280     -0.286529
O            -0.205031     -0.259745      0.407770
O            -0.294526     -0.081059     -0.349601
O             0.209244     -0.080577     -0.389016
O             0.326712     -0.233131      0.345962
O            -0.051785     -0.246285     -0.352259
O            -0.433134     -0.072327      0.395894
O             0.049589     -0.089322      0.358808
O             0.445719     -0.214566     -0.385155
Fe            0.143118      0.085490     -0.284764
Fe            0.357418      0.250383      0.486216
Fe           -0.152945      0.251420      0.276977
Fe           -0.351406      0.093958     -0.478432
H            -0.095844      0.091068     -0.462082
H            -0.429111      0.256915      0.297198
H             0.096541      0.240494      0.455371
H             0.434099      0.087421     -0.290629
O            -0.190056      0.093283      0.399067
O            -0.308390      0.261642     -0.357458
O             0.204688      0.239634     -0.399570
O             0.294118      0.073388      0.360941
O            -0.061871      0.087249     -0.361395
O            -0.455192      0.250556      0.398198
O             0.043881      0.242795      0.368355
O             0.454903      0.091856     -0.393771
Cu            0.144799      0.413124     -0.290488
H             0.302694     -0.395397     -0.415756
Fe           -0.149074     -0.421802      0.285343
Fe           -0.368773      0.438589     -0.491701
H            -0.078157      0.418210     -0.454686
H            -0.405401     -0.399046      0.285333
H             0.088305     -0.423019      0.453729
H             0.437954      0.396963     -0.304243
O            -0.207765      0.409086      0.395300
O            -0.302537     -0.414282     -0.355446
O             0.208805     -0.407996     -0.408255
O             0.298379      0.379219      0.347734
O            -0.054324      0.426253     -0.352774
O            -0.440435     -0.400624      0.384200
O             0.048876     -0.418599      0.356357
O             0.438272      0.413016     -0.407859
H             0.127378     -0.435186      0.054107
H             0.384781     -0.309614      0.382440
data_nwchem_pspw

_audit_creation_date   Tue Nov 21 04:48:53 2023
_audit_creation_method    generated by PSPW module of NWChem


_cell_length_a            10.0667
_cell_length_b             9.1552
_cell_length_c             9.2041
_cell_angle_alpha         90.0000
_cell_angle_beta          90.0000
_cell_angle_gamma         90.0000

_symmetry_space_group_name_H-M     P1  

loop_
_atom_site_type_symbol
_atom_site_fract_x
_atom_site_fract_y
_atom_site_fract_z
Fe            0.137683     -0.231911      0.211100
Fe            0.355611     -0.080745     -0.035997
Fe           -0.141268     -0.092552     -0.246601
Fe           -0.348187     -0.239276      0.032679
H            -0.088406     -0.232688      0.046996
H            -0.427146     -0.056535     -0.194930
H             0.089334     -0.075573     -0.045776
H             0.415380     -0.237534      0.186354
O            -0.173137     -0.240348     -0.086765
O            -0.325044     -0.057405      0.164211
O             0.210807     -0.071120      0.092731
O             0.322207     -0.247799     -0.162924
O            -0.059368     -0.251123      0.148530
O            -0.455656     -0.082011     -0.102741
O             0.063691     -0.078474     -0.147300
O             0.449273     -0.246130      0.088241
Fe            0.154611      0.101747      0.225247
Fe            0.342379      0.248561     -0.019740
Fe           -0.148608      0.244174     -0.215593
Fe           -0.355431      0.085432      0.012975
H            -0.109820      0.082415      0.052825
H            -0.439907      0.246523     -0.218691
H             0.082721      0.244845     -0.057502
H             0.418928      0.073337      0.200106
O            -0.197366      0.071610     -0.093084
O            -0.326877      0.256433      0.144108
O             0.186310      0.266103      0.099670
O             0.300353      0.086475     -0.159318
O            -0.059772      0.085044      0.145184
O            -0.454966      0.252524     -0.115583
O             0.051166      0.237716     -0.160066
O             0.446619      0.079634      0.097267
Fe            0.149331      0.413241      0.259652
Fe            0.350546     -0.408751     -0.021414
Fe           -0.150443     -0.420458     -0.231180
Fe           -0.345680      0.422090      0.009543
H            -0.064852      0.423131      0.047719
H            -0.426471     -0.407507     -0.202717
H            -0.001637     -0.338053     -0.060686
H             0.425641      0.418858      0.194486
O            -0.184669      0.407254     -0.096536
O            -0.289029     -0.394378      0.148336
O             0.192291     -0.418234      0.113855
O             0.294420      0.442859     -0.142330
O            -0.055403      0.417643      0.152027
O            -0.448536     -0.405235     -0.100202
O             0.062750     -0.401489     -0.105830
O             0.450907      0.427298      0.091651
Fe            0.165269     -0.246914     -0.268012
Fe            0.355802     -0.093023      0.473246
Fe           -0.146281     -0.077121      0.269702
Fe           -0.357597     -0.274116      0.499723
H            -0.054134     -0.251117     -0.443253
H            -0.428573     -0.067114      0.290868
H             0.092822     -0.081415      0.456292
H             0.457307     -0.259651     -0.302628
O            -0.184337     -0.261806      0.420803
O            -0.294786     -0.090255     -0.375448
O             0.217696     -0.089248     -0.395102
O             0.310767     -0.249475      0.327554
O            -0.042024     -0.251409     -0.338428
O            -0.453888     -0.094045      0.393259
O             0.062237     -0.089995      0.356875
O             0.462132     -0.260291     -0.407265
Fe            0.148770      0.070422     -0.274159
Fe            0.354487      0.244547      0.485254
Fe           -0.167756      0.254906      0.263836
Fe           -0.353473      0.075181     -0.466162
H            -0.091504      0.105094     -0.442638
H            -0.404285      0.246487      0.302934
H             0.073976      0.257135      0.453756
H             0.409347      0.092434     -0.296879
O            -0.206187      0.079222      0.401387
O            -0.297143      0.253650     -0.340457
O             0.191788      0.228110     -0.397685
O             0.314150      0.076330      0.338604
O            -0.053060      0.077963     -0.349840
O            -0.435002      0.232326      0.404581
O             0.055879      0.251226      0.352884
O             0.454060      0.078326     -0.391855
Cu            0.145011      0.426447     -0.277549
H             0.273643     -0.419816     -0.458323
Fe           -0.141238     -0.413726      0.286931
Fe           -0.368538      0.402429     -0.462748
H            -0.087381      0.424374     -0.455565
H            -0.435952     -0.424775      0.292140
H             0.073823     -0.400796      0.456167
H             0.415975      0.437888     -0.302616
O            -0.213876      0.410624      0.397212
O            -0.311304     -0.412695     -0.345860
O             0.192757     -0.415783     -0.405544
O             0.301592      0.391362      0.370323
O            -0.050688      0.418799     -0.358462
O            -0.455793     -0.443673      0.395469
O             0.049608     -0.397982      0.354162
O             0.455051      0.375829     -0.375628
H             0.112577     -0.425380     -0.003929
H             0.347747     -0.337846      0.366589
data_nwchem_pspw

_audit_creation_date   Tue Nov 21 06:47:16 2023
_audit_creation_method    generated by PSPW module of NWChem


_cell_length_a            10.0667
_cell_length_b             9.1552
_cell_length_c             9.2041
_cell_angle_alpha         90.0000
_cell_angle_beta          90.0000
_cell_angle_gamma         90.0000

_symmetry_space_group_name_H-M     P1  

loop_
_atom_site_type_symbol
_atom_site_fract_x
_atom_site_fract_y
_atom_site_fract_z
Fe            0.150623     -0.253541      0.223350
Fe            0.364162     -0.094618     -0.029735
Fe           -0.151701     -0.089257     -0.223191
Fe           -0.339906     -0.256961      0.040061
H            -0.079838     -0.239501      0.048174
H            -0.409042     -0.097560     -0.207440
H             0.084628     -0.072730     -0.062522
H             0.437270     -0.228259      0.207336
O            -0.173287     -0.249542     -0.090679
O            -0.296384     -0.084723      0.134598
O             0.214122     -0.081554      0.103170
O             0.307221     -0.261197     -0.143980
O            -0.042630     -0.264490      0.142476
O            -0.434889     -0.081639     -0.103452
O             0.056315     -0.071769     -0.162908
O             0.462679     -0.258718      0.106891
Fe            0.151323      0.083073      0.226829
Fe            0.338005      0.245999     -0.034450
Fe           -0.157292      0.257208     -0.245794
Fe           -0.357651      0.087980      0.015780
H            -0.095544      0.094711      0.053577
H            -0.419478      0.262388     -0.193311
H             0.066315      0.280555     -0.061068
H             0.397579      0.101066      0.187156
O            -0.214030      0.089737     -0.121007
O            -0.302613      0.242650      0.148434
O             0.186601      0.259199      0.079479
O             0.309785      0.071471     -0.169199
O            -0.044098      0.074065      0.139677
O            -0.467884      0.260654     -0.101802
O             0.041416      0.270358     -0.162054
O             0.436607      0.092022      0.091798
Fe            0.151895      0.395227      0.235302
Fe            0.385411     -0.426926     -0.013351
Fe           -0.149906     -0.413127     -0.245798
Fe           -0.349465      0.406084      0.019082
H            -0.080967      0.399522      0.061735
H            -0.409371     -0.432286     -0.199579
H             0.014795     -0.329024     -0.050947
H             0.425487      0.427011      0.231131
O            -0.194887      0.407403     -0.099193
O            -0.292980     -0.427804      0.152202
O             0.202203     -0.428069      0.088832
O             0.309989      0.430215     -0.154896
O            -0.048785      0.399195      0.160750
O            -0.427471     -0.431893     -0.096002
O             0.043941     -0.395688     -0.121057
O             0.443572      0.400741      0.130098
Fe            0.154339     -0.244911     -0.256366
Fe            0.365202     -0.069884      0.473404
Fe           -0.147620     -0.087273      0.274023
Fe           -0.373005     -0.242315     -0.491942
H            -0.093839     -0.230643     -0.463518
H            -0.414432     -0.081456      0.278094
H             0.093254     -0.088499      0.451515
H             0.406410     -0.233827     -0.317841
O            -0.211011     -0.262975      0.395735
O            -0.315657     -0.084244     -0.348138
O             0.212715     -0.090713     -0.395573
O             0.321768     -0.236365      0.331191
O            -0.063644     -0.254974     -0.367254
O            -0.450334     -0.069240      0.375112
O             0.052603     -0.098961      0.358057
O             0.446104     -0.237860     -0.413307
Fe            0.146688      0.095095     -0.279582
Fe            0.352280      0.267537      0.498430
Fe           -0.156696      0.241294      0.291516
Fe           -0.345164      0.078355     -0.468842
H            -0.089670      0.098815     -0.453586
H            -0.444714      0.255744      0.304986
H             0.066666      0.228461      0.464374
H             0.428896      0.055798     -0.303309
O            -0.189451      0.067627      0.419472
O            -0.315312      0.261436     -0.353675
O             0.193727      0.245758     -0.389955
O             0.290533      0.087803      0.364096
O            -0.048874      0.098083     -0.356192
O            -0.442011      0.245173      0.408476
O             0.050337      0.237384      0.360741
O             0.458666      0.087847     -0.400335
Cu            0.135008      0.432071     -0.273071
H             0.281833     -0.427699     -0.436790
Fe           -0.140346     -0.429737      0.290212
Fe           -0.380062      0.434595     -0.485031
H            -0.077030      0.439335     -0.458355
H            -0.424715     -0.405036      0.286920
H             0.103931     -0.408735      0.444004
H             0.403101      0.394731     -0.275327
O            -0.206533      0.406008      0.403652
O            -0.303170     -0.411293     -0.357232
O             0.191288     -0.406761     -0.409789
O             0.304852      0.402699      0.359698
O            -0.055360      0.433992     -0.356997
O            -0.465214     -0.418568      0.381533
O             0.063836     -0.427750      0.346659
O             0.435639      0.405131     -0.376243
H             0.150864     -0.455271      0.002843
H             0.355289     -0.328324      0.367091
data_nwchem_pspw

_audit_creation_date   Tue Nov 21 08:50:09 2023
_audit_creation_method    generated by PSPW module of NWChem


_cell_length_a            10.0667
_cell_length_b             9.1552
_cell_length_c             9.2041
_cell_angle_alpha         90.0000
_cell_angle_beta          90.0000
_cell_angle_gamma         90.0000

_symmetry_space_group_name_H-M     P1  

loop_
_atom_site_type_symbol
_atom_site_fract_x
_atom_site_fract_y
_atom_site_fract_z
Fe            0.154607     -0.254412      0.221534
Fe            0.345401     -0.089906     -0.033457
Fe           -0.147975     -0.078492     -0.222957
Fe           -0.355360     -0.237176      0.038881
H            -0.112214     -0.260526      0.060874
H            -0.459487     -0.106666     -0.191718
H             0.093650     -0.103165     -0.057274
H             0.417794     -0.290824      0.195465
O            -0.204000     -0.239292     -0.086465
O            -0.317946     -0.057302      0.171258
O             0.194740     -0.092752      0.093217
O             0.314795     -0.269681     -0.165984
O            -0.063396     -0.249038      0.153725
O            -0.468143     -0.070883     -0.092128
O             0.061207     -0.095966     -0.157010
O             0.438876     -0.261102      0.097028
Fe            0.147791      0.081818      0.214150
Fe            0.346553      0.254416     -0.035338
Fe           -0.145341      0.258724     -0.220066
Fe           -0.359943      0.098393      0.011559
H            -0.083850      0.085079      0.033353
H            -0.398879      0.279410     -0.217501
H             0.105890      0.264601     -0.062293
H             0.423390      0.110230      0.196133
O            -0.204093      0.089938     -0.099937
O            -0.300339      0.262869      0.150662
O             0.201216      0.243360      0.090825
O             0.279530      0.067811     -0.150080
O            -0.059956      0.088404      0.134828
O            -0.445360      0.253636     -0.125602
O             0.047529      0.254222     -0.142851
O             0.451497      0.096245      0.096091
Fe            0.163235      0.407243      0.240208
Fe            0.360838     -0.436699     -0.034174
Fe           -0.152996     -0.414301     -0.243371
Fe           -0.352727      0.419287      0.022761
H            -0.076812      0.412015      0.055681
H            -0.427671     -0.434955     -0.224286
H            -0.006517     -0.315710     -0.074515
H             0.424395      0.409429      0.207178
O            -0.188183      0.422496     -0.082189
O            -0.299819     -0.404303      0.151546
O             0.195361     -0.444092      0.093178
O             0.284262      0.409767     -0.147235
O            -0.053459      0.413307      0.158054
O            -0.453251     -0.424804     -0.121842
O             0.051479     -0.386571     -0.115595
O             0.442182      0.401195      0.100631
Fe            0.161128     -0.272774     -0.283378
Fe            0.356981     -0.096513      0.472441
Fe           -0.146443     -0.077709      0.262971
Fe           -0.355637     -0.254066     -0.494502
H            -0.066350     -0.252641     -0.459682
H            -0.429258     -0.047236      0.310935
H             0.117224     -0.071803      0.442810
H             0.416549     -0.296442     -0.342243
O            -0.184948     -0.239048      0.417571
O            -0.304451     -0.095117     -0.354166
O             0.209160     -0.100424     -0.400414
O             0.318524     -0.266046      0.340883
O            -0.042445     -0.263538     -0.354838
O            -0.448358     -0.070076      0.413046
O             0.060986     -0.071138      0.359460
O             0.462117     -0.214116     -0.378779
Fe            0.140605      0.066878     -0.277857
Fe            0.361061      0.250264      0.495208
Fe           -0.158920      0.263120      0.289269
Fe           -0.354234      0.083119     -0.446663
H            -0.074080      0.076431     -0.454441
H            -0.419760      0.258307      0.305512
H             0.098324      0.231428      0.453591
H             0.436733      0.094249     -0.280005
O            -0.203114      0.096128      0.409248
O            -0.302383      0.261234     -0.350267
O             0.198667      0.218520     -0.393433
O             0.301615      0.070924      0.350551
O            -0.051481      0.069243     -0.351143
O            -0.449536      0.250287      0.405144
O             0.056296      0.247848      0.360014
O             0.448760      0.101927     -0.382942
Cu            0.136094      0.408926     -0.284385
H             0.308809     -0.478762     -0.418989
Fe           -0.139925     -0.400007      0.283494
Fe           -0.353476      0.425600     -0.485712
H            -0.085030      0.412985     -0.440326
H            -0.412797     -0.403529      0.295198
H             0.099423     -0.381815      0.448774
H             0.441426      0.403975     -0.287499
O            -0.205641      0.437168      0.400611
O            -0.316934     -0.418995     -0.343213
O             0.217679     -0.439699     -0.409182
O             0.313540      0.409582      0.355738
O            -0.052404      0.421021     -0.341956
O            -0.442955     -0.422860      0.393294
O             0.067942     -0.402052      0.352975
O             0.441581      0.420795     -0.389077
H             0.122619     -0.446046      0.012549
H             0.339531     -0.354774      0.391755
data_nwchem_pspw

_audit_creation_date   Tue Nov 21 11:21:59 2023
_audit_creation_method    generated by PSPW module of NWChem


_cell_length_a            10.0667
_cell_length_b             9.1552
_cell_length_c             9.2041
_cell_angle_alpha         90.0000
_cell_angle_beta          90.0000
_cell_angle_gamma         90.0000

_symmetry_space_group_name_H-M     P1  

loop_
_atom_site_type_symbol
_atom_site_fract_x
_atom_site_fract_y
_atom_site_fract_z
Fe            0.145657     -0.256066      0.232586
Fe            0.359183     -0.091838     -0.025707
Fe           -0.144092     -0.093136     -0.224572
Fe           -0.345716     -0.255088      0.031221
H            -0.079238     -0.275234      0.054070
H            -0.412400     -0.117080     -0.198613
H             0.114224     -0.069331     -0.054323
H             0.444417     -0.289086      0.192932
O            -0.202425     -0.239003     -0.096903
O            -0.303553     -0.075082      0.144771
O             0.208231     -0.080754      0.117936
O             0.308040     -0.256252     -0.166235
O            -0.052414     -0.259727      0.152388
O            -0.457736     -0.080218     -0.108729
O             0.062772     -0.066502     -0.144823
O             0.457549     -0.246132      0.100493
Fe            0.149183      0.093811      0.231306
Fe            0.335996      0.262606     -0.014533
Fe           -0.145387      0.243993     -0.230080
Fe           -0.360909      0.086118      0.006744
H            -0.079517      0.065179      0.055646
H            -0.462116      0.263984     -0.213066
H             0.058597      0.252640     -0.039329
H             0.404377      0.068046      0.198078
O            -0.210667      0.078200     -0.123622
O            -0.297371      0.246133      0.135712
O             0.171671      0.255635      0.075545
O             0.291146      0.084620     -0.132927
O            -0.060894      0.081847      0.156513
O            -0.466558      0.252342     -0.111164
O             0.033009      0.259965     -0.143458
O             0.436106      0.094070      0.103197
Fe            0.160598      0.402213      0.240465
Fe            0.375213     -0.407585     -0.039937
Fe           -0.144943     -0.421667     -0.248922
Fe           -0.345764      0.404309      0.016825
H            -0.077337      0.427949      0.035535
H            -0.400040     -0.410203     -0.205235
H            -0.023486     -0.282775     -0.099039
H             0.438796      0.447607      0.205477
O            -0.195891      0.408382     -0.114294
O            -0.280257     -0.422277      0.141760
O             0.200116     -0.409028      0.085294
O             0.309016      0.431674     -0.144891
O            -0.053413      0.406525      0.134468
O            -0.417129     -0.414090     -0.100772
O             0.038274     -0.351687     -0.136420
O             0.464914      0.428616      0.104765
Fe            0.144760     -0.243499     -0.281739
Fe            0.359123     -0.075062      0.489021
Fe           -0.156647     -0.088284      0.276062
Fe           -0.373123     -0.270356     -0.494633
H            -0.101035     -0.274693     -0.474568
H            -0.413667     -0.077830      0.301772
H             0.079503     -0.059022      0.449461
H             0.414870     -0.259046     -0.306790
O            -0.209236     -0.262248      0.391101
O            -0.307384     -0.106234     -0.342758
O             0.203910     -0.078521     -0.398247
O             0.308961     -0.237849      0.338350
O            -0.058937     -0.258592     -0.379320
O            -0.441952     -0.079104      0.402591
O             0.051197     -0.084371      0.353119
O             0.447208     -0.246958     -0.409284
Fe            0.144093      0.097770     -0.259329
Fe            0.359357      0.263590      0.481640
Fe           -0.161468      0.252093      0.270086
Fe           -0.339923      0.070507     -0.457353
H            -0.074000      0.058886     -0.454565
H            -0.443705      0.262164      0.298553
H             0.077099      0.234373      0.472394
H             0.444903      0.081054     -0.282902
O            -0.197782      0.070413      0.403373
O            -0.309897      0.258791     -0.339215
O             0.198004      0.244871     -0.379430
O             0.296249      0.092888      0.369166
O            -0.045449      0.070553     -0.354352
O            -0.450628      0.229652      0.396809
O             0.062005      0.242919      0.366568
O             0.462985      0.077487     -0.384615
Cu            0.142754      0.429345     -0.265019
H             0.287601     -0.420615     -0.420652
Fe           -0.139549     -0.426594      0.281141
Fe           -0.366867      0.418555     -0.469553
H            -0.068901      0.402185     -0.465807
H            -0.384386     -0.439363      0.289090
H             0.103512     -0.431928      0.447465
H             0.408196      0.392803     -0.293273
O            -0.213580      0.411595      0.403826
O            -0.297667     -0.405370     -0.358607
O             0.192743     -0.416308     -0.410548
O             0.319228      0.409306      0.341629
O            -0.048716      0.417568     -0.364550
O            -0.442250     -0.440336      0.375510
O             0.057767     -0.426699      0.352425
O             0.441266      0.419223     -0.388584
H             0.126373     -0.395524      0.012893
H             0.352080     -0.320871      0.382049
data_nwchem_pspw

_audit_creation_date   Tue Nov 21 12:51:38 2023
_audit_creation_method    generated by PSPW module of NWChem


_cell_length_a            10.0667
_cell_length_b             9.1552
_cell_length_c             9.2041
_cell_angle_alpha         90.0000
_cell_angle_beta          90.0000
_cell_angle_gamma         90.0000

_symmetry_space_group_name_H-M     P1  

loop_
_atom_site_type_symbol
_atom_site_fract_x
_atom_site_fract_y
_atom_site_fract_z
Fe            0.152597     -0.260938      0.225294
Fe            0.350056     -0.083259     -0.015519
Fe           -0.148217     -0.077679     -0.222103
Fe           -0.346390     -0.241375      0.034049
H            -0.091949     -0.230082      0.059076
H            -0.419212     -0.080118     -0.209052
H             0.056087     -0.048502     -0.048498
H             0.456056     -0.248049      0.203000
O            -0.199196     -0.245398     -0.097882
O            -0.300274     -0.069635      0.154776
O             0.192049     -0.086551      0.104422
O             0.303754     -0.257367     -0.137703
O            -0.054041     -0.238363      0.155975
O            -0.449247     -0.082848     -0.107987
O             0.043576     -0.067794     -0.149838
O             0.464885     -0.250071      0.096639
Fe            0.144107      0.084231      0.222345
Fe            0.352652      0.242024     -0.027700
Fe           -0.144680      0.262712     -0.231669
Fe           -0.356514      0.090203      0.003645
H            -0.090555      0.105539      0.041996
H            -0.426901      0.246993     -0.221821
H             0.088573      0.242894     -0.061260
H             0.419540      0.103143      0.202959
O            -0.205388      0.090971     -0.112040
O            -0.297623      0.253221      0.140099
O             0.201435      0.244923      0.095393
O             0.297862      0.080180     -0.150978
O            -0.048632      0.086272      0.135656
O            -0.440123      0.246092     -0.118706
O             0.058242      0.249435     -0.161715
O             0.451291      0.090413      0.103924
Fe            0.143113      0.397836      0.239209
Fe            0.366364     -0.422554     -0.028045
Fe           -0.157239     -0.408339     -0.245916
Fe           -0.358267      0.428257      0.022260
H            -0.066828      0.430092      0.043721
H            -0.422940     -0.426812     -0.218626
H            -0.022255     -0.353215     -0.057617
H             0.436719      0.402462      0.207434
O            -0.207264      0.431769     -0.105813
O            -0.293037     -0.415330      0.150851
O             0.207747     -0.422589      0.104743
O             0.305241      0.421050     -0.143093
O            -0.044168      0.419180      0.144922
O            -0.442203     -0.423325     -0.115584
O             0.046485     -0.404278     -0.107150
O             0.459243      0.406957      0.107584
Fe            0.151206     -0.266464     -0.252127
Fe            0.354855     -0.090941      0.476044
Fe           -0.137896     -0.067925      0.268425
Fe           -0.373782     -0.262635     -0.480970
H            -0.070720     -0.234869     -0.447351
H            -0.411876     -0.086721      0.296584
H             0.092919     -0.096491      0.434529
H             0.399491     -0.226447     -0.290822
O            -0.192098     -0.235211      0.411318
O            -0.309632     -0.091920     -0.340552
O             0.194533     -0.105232     -0.393359
O             0.330749     -0.266605      0.324538
O            -0.047963     -0.256403     -0.347536
O            -0.457147     -0.090430      0.390010
O             0.060010     -0.095008      0.336895
O             0.426689     -0.248503     -0.389025
Fe            0.147295      0.073338     -0.285092
Fe            0.344880      0.245181      0.478485
Fe           -0.148621      0.266968      0.267530
Fe           -0.338663      0.080862     -0.461313
H            -0.057558      0.074052     -0.452906
H            -0.437860      0.251781      0.295116
H             0.084914      0.238143      0.454008
H             0.413745      0.073469     -0.292072
O            -0.195814      0.072570      0.396553
O            -0.294738      0.263879     -0.353606
O             0.180048      0.236439     -0.400167
O             0.297899      0.072876      0.351206
O            -0.051961      0.087655     -0.348187
O            -0.460626      0.242769      0.395120
O             0.048530      0.240524      0.354515
O             0.457714      0.088253     -0.384888
Cu            0.144356      0.416709     -0.265251
H             0.307138     -0.447584     -0.414678
Fe           -0.140488     -0.398346      0.292454
Fe           -0.369462      0.410440     -0.488340
H            -0.042817      0.418199     -0.442818
H            -0.401308     -0.417225      0.279795
H             0.101435     -0.411883      0.449677
H             0.457570      0.405650     -0.295227
O            -0.201964      0.417784      0.401228
O            -0.313310     -0.421468     -0.362754
O             0.213241     -0.430280     -0.400861
O             0.285479      0.408290      0.358964
O            -0.042381      0.424279     -0.338568
O            -0.433315     -0.435209      0.378685
O             0.057205     -0.404587      0.354536
O             0.453466      0.416747     -0.397829
H             0.142133     -0.424908      0.020021
H             0.365397     -0.358029      0.359839
data_nwchem_pspw

_audit_creation_date   Tue Nov 21 19:06:37 2023
_audit_creation_method    generated by PSPW module of NWChem


_cell_length_a            10.0667
_cell_length_b             9.1552
_cell_length_c             9.2041
_cell_angle_alpha         90.0000
_cell_angle_beta          90.0000
_cell_angle_gamma         90.0000

_symmetry_space_group_name_H-M     P1  

loop_
_atom_site_type_symbol
_atom_site_fract_x
_atom_site_fract_y
_atom_site_fract_z
Fe            0.138350     -0.243454      0.230405
Fe            0.362223     -0.110323     -0.043048
Fe           -0.153730     -0.077450     -0.233713
Fe           -0.350341     -0.255682      0.045044
H            -0.108455     -0.232718      0.049770
H            -0.417691     -0.129144     -0.203238
H             0.081274     -0.072884     -0.043831
H             0.418639     -0.249618      0.194295
O            -0.199255     -0.247666     -0.087403
O            -0.328142     -0.081057      0.173132
O             0.212848     -0.092195      0.089933
O             0.309115     -0.276183     -0.166446
O            -0.050306     -0.224712      0.142081
O            -0.442912     -0.106550     -0.103044
O             0.047190     -0.064368     -0.141914
O             0.446741     -0.268548      0.093606
Fe            0.149172      0.077001      0.213774
Fe            0.351015      0.227303     -0.023781
Fe           -0.149777      0.248370     -0.240406
Fe           -0.353899      0.078692      0.015687
H            -0.076570      0.063178      0.059253
H            -0.419525      0.276336     -0.190366
H             0.077342      0.231027     -0.039400
H             0.418851      0.059296      0.185552
O            -0.205611      0.075707     -0.098596
O            -0.301556      0.253764      0.152983
O             0.189725      0.233045      0.088046
O             0.299870      0.054293     -0.157799
O            -0.060766      0.077611      0.161049
O            -0.448663      0.242503     -0.097208
O             0.051135      0.236363     -0.141907
O             0.442828      0.060770      0.082784
Fe            0.135856      0.408638      0.249319
Fe            0.369273     -0.443605     -0.030038
Fe           -0.136175     -0.414006     -0.215296
Fe           -0.349304      0.401475      0.030530
H            -0.076498      0.393661      0.052725
H            -0.387625     -0.438605     -0.193220
H             0.010811     -0.319225     -0.047505
H             0.425041      0.412028      0.204601
O            -0.204594      0.411665     -0.100872
O            -0.303600     -0.430085      0.164281
O             0.197747     -0.442437      0.098329
O             0.318955      0.408373     -0.161797
O            -0.039388      0.422148      0.145282
O            -0.424891     -0.430693     -0.094953
O             0.044210     -0.394223     -0.108906
O             0.452715      0.394453      0.105451
Fe            0.145813     -0.253639     -0.276474
Fe            0.364131     -0.062170      0.473384
Fe           -0.148781     -0.076137      0.280600
Fe           -0.357442     -0.232385     -0.487304
H            -0.090842     -0.256117     -0.439075
H            -0.418129     -0.078042      0.286926
H             0.085592     -0.083434      0.450648
H             0.422454     -0.220149     -0.299663
O            -0.177179     -0.228058      0.413620
O            -0.317104     -0.072249     -0.351650
O             0.195469     -0.073457     -0.405287
O             0.305536     -0.238142      0.340318
O            -0.056253     -0.245799     -0.340085
O            -0.450694     -0.060676      0.388426
O             0.063208     -0.077158      0.348133
O             0.451312     -0.212807     -0.399439
Fe            0.136097      0.078305     -0.282225
Fe            0.364134      0.268280      0.472619
Fe           -0.154974      0.257651      0.277069
Fe           -0.362598      0.093576     -0.477053
H            -0.122251      0.094194     -0.463466
H            -0.404700      0.271177      0.293622
H             0.103097      0.214949      0.442990
H             0.408759      0.080489     -0.288852
O            -0.210344      0.089817      0.398198
O            -0.298576      0.263749     -0.350628
O             0.209473      0.222936     -0.387899
O             0.308003      0.090460      0.342679
O            -0.071993      0.085223     -0.371827
O            -0.435256      0.274670      0.393626
O             0.057684      0.231039      0.351520
O             0.445743      0.094262     -0.387514
Cu            0.141155      0.416507     -0.271780
H             0.279749     -0.426647     -0.414706
Fe           -0.137567     -0.417437      0.273176
Fe           -0.348992      0.430435     -0.469992
H            -0.109420      0.414376     -0.447139
H            -0.402918     -0.394146      0.301530
H             0.098973     -0.396542      0.450006
H             0.416064      0.397812     -0.301224
O            -0.200557      0.414671      0.403411
O            -0.298152     -0.392195     -0.345965
O             0.185398     -0.415893     -0.404428
O             0.290733      0.407965      0.349653
O            -0.062680      0.412432     -0.352091
O            -0.443246     -0.392334      0.396384
O             0.057747     -0.403539      0.352641
O             0.449794      0.431056     -0.394297
H             0.125170     -0.429969      0.027905
H             0.337070     -0.323984      0.387732
data_nwchem_pspw

_audit_creation_date   Tue Nov 21 22:25:22 2023
_audit_creation_method    generated by PSPW module of NWChem


_cell_length_a            10.0667
_cell_length_b             9.1552
_cell_length_c             9.2041
_cell_angle_alpha         90.0000
_cell_angle_beta          90.0000
_cell_angle_gamma         90.0000

_symmetry_space_group_name_H-M     P1  

loop_
_atom_site_type_symbol
_atom_site_fract_x
_atom_site_fract_y
_atom_site_fract_z
Fe            0.142569     -0.244423      0.226715
Fe            0.346827     -0.067841     -0.034305
Fe           -0.156430     -0.094253     -0.223237
Fe           -0.349378     -0.238493      0.029397
H            -0.094499     -0.240297      0.073714
H            -0.431991     -0.056424     -0.216011
H             0.108707     -0.075138     -0.069929
H             0.406078     -0.240161      0.191165
O            -0.197307     -0.252151     -0.095449
O            -0.281733     -0.066222      0.143834
O             0.194989     -0.085343      0.100252
O             0.312919     -0.235552     -0.141665
O            -0.045415     -0.255739      0.162567
O            -0.444682     -0.060923     -0.113137
O             0.057434     -0.064300     -0.159312
O             0.454868     -0.240365      0.099478
Fe            0.148355      0.067648      0.236702
Fe            0.339771      0.264337     -0.029696
Fe           -0.151458      0.242837     -0.234888
Fe           -0.355203      0.106291      0.025569
H            -0.058923      0.086747      0.051426
H            -0.429496      0.252983     -0.200325
H             0.098006      0.234630     -0.071354
H             0.403853      0.059942      0.187462
O            -0.190938      0.081653     -0.095997
O            -0.306636      0.264586      0.162516
O             0.179225      0.239859      0.089510
O             0.317334      0.100984     -0.165333
O            -0.042043      0.072568      0.154250
O            -0.454972      0.268958     -0.098965
O             0.055082      0.246892     -0.165929
O             0.438804      0.076068      0.090598
Fe            0.145582      0.390515      0.243160
Fe            0.366664     -0.408667     -0.036181
Fe           -0.150324     -0.420896     -0.233749
Fe           -0.346105      0.437252      0.027448
H            -0.081819      0.416285      0.062880
H            -0.417632     -0.384994     -0.212863
H            -0.007606     -0.338996     -0.056720
H             0.428989      0.428492      0.205667
O            -0.187791      0.429249     -0.088512
O            -0.284057     -0.424165      0.157467
O             0.204956     -0.432634      0.103369
O             0.300728      0.433798     -0.155030
O            -0.043132      0.410251      0.160113
O            -0.439652     -0.394107     -0.112259
O             0.049275     -0.392174     -0.118941
O             0.453862      0.424070      0.103397
Fe            0.148376     -0.250871     -0.266393
Fe            0.349652     -0.086975      0.479739
Fe           -0.141413     -0.090558      0.285935
Fe           -0.365948     -0.246839     -0.493272
H            -0.096963     -0.259740     -0.458541
H            -0.420019     -0.080551      0.285727
H             0.068101     -0.099954      0.464039
H             0.428994     -0.234869     -0.309519
O            -0.182849     -0.256382      0.417479
O            -0.293906     -0.088260     -0.359684
O             0.194502     -0.087523     -0.398501
O             0.310553     -0.259908      0.340743
O            -0.052482     -0.262223     -0.358467
O            -0.448820     -0.085983      0.386051
O             0.057241     -0.092281      0.360743
O             0.454706     -0.241412     -0.410046
Fe            0.143113      0.091615     -0.297322
Fe            0.357557      0.257295      0.486924
Fe           -0.146634      0.241967      0.265352
Fe           -0.342973      0.071017     -0.491145
H            -0.090963      0.076738     -0.459607
H            -0.457905      0.261139      0.301912
H             0.077921      0.251869      0.468638
H             0.441019      0.073459     -0.290681
O            -0.194241      0.073166      0.395309
O            -0.317142      0.246813     -0.342456
O             0.185718      0.242196     -0.415310
O             0.302471      0.061813      0.356784
O            -0.051673      0.075099     -0.359515
O            -0.452609      0.240002      0.403149
O             0.037969      0.215617      0.375671
O             0.465143      0.077875     -0.392796
Cu            0.135164      0.423629     -0.277940
H             0.300039     -0.436741     -0.409279
Fe           -0.140703     -0.434016      0.297217
Fe           -0.360640      0.412164     -0.472745
H            -0.075228      0.433339     -0.443289
H            -0.409824     -0.431801      0.301421
H             0.077692     -0.415523      0.466945
H             0.405975      0.410276     -0.301456
O            -0.200094      0.403223      0.408408
O            -0.297874     -0.418928     -0.365298
O             0.207947     -0.410214     -0.396902
O             0.306732      0.376006      0.338233
O            -0.053236      0.423613     -0.341614
O            -0.443885     -0.427322      0.399693
O             0.063242     -0.433324      0.366567
O             0.438353      0.412153     -0.400921
H             0.140745     -0.431356      0.017382
H             0.339867     -0.353605      0.376411
data_nwchem_pspw

_audit_creation_date   Wed Nov 22 01:09:46 2023
_audit_creation_method    generated by PSPW module of NWChem


_cell_length_a            10.0667
_cell_length_b             9.1552
_cell_length_c             9.2041
_cell_angle_alpha         90.0000
_cell_angle_beta          90.0000
_cell_angle_gamma         90.0000

_symmetry_space_group_name_H-M     P1  

loop_
_atom_site_type_symbol
_atom_site_fract_x
_atom_site_fract_y
_atom_site_fract_z
Fe            0.126447     -0.243354      0.230283
Fe            0.354655     -0.091275     -0.017447
Fe           -0.159620     -0.093985     -0.232748
Fe           -0.348697     -0.252803      0.017493
H            -0.093539     -0.243352      0.045247
H            -0.431324     -0.094840     -0.208110
H             0.096047     -0.068552     -0.032926
H             0.408623     -0.254062      0.211434
O            -0.181482     -0.252468     -0.095210
O            -0.294595     -0.085467      0.145996
O             0.205743     -0.090221      0.120342
O             0.322171     -0.257264     -0.149869
O            -0.053604     -0.248123      0.142076
O            -0.438779     -0.082452     -0.104171
O             0.072922     -0.084250     -0.132886
O             0.455842     -0.263980      0.118475
Fe            0.137054      0.095354      0.228964
Fe            0.352308      0.265054     -0.029804
Fe           -0.136423      0.241626     -0.219674
Fe           -0.355557      0.085594      0.005276
H            -0.090830      0.084713      0.045353
H            -0.394808      0.269895     -0.213995
H             0.105430      0.219197     -0.036778
H             0.423110      0.082300      0.209364
O            -0.195591      0.097933     -0.095439
O            -0.306721      0.249400      0.138345
O             0.202886      0.247195      0.105797
O             0.309337      0.084699     -0.143758
O            -0.061059      0.099148      0.145773
O            -0.439438      0.261007     -0.121525
O             0.067941      0.235129     -0.133659
O             0.446047      0.093049      0.107587
Fe            0.145901      0.408288      0.245306
Fe            0.367225     -0.415984     -0.023593
Fe           -0.144528     -0.428325     -0.239338
Fe           -0.351433      0.415772      0.009307
H            -0.076134      0.415995      0.054693
H            -0.404285     -0.397839     -0.211886
H             0.002511     -0.351517     -0.052194
H             0.432118      0.443586      0.205220
O            -0.195145      0.415641     -0.110146
O            -0.288023     -0.420120      0.133689
O             0.188231     -0.418444      0.089115
O             0.301192      0.439559     -0.154606
O            -0.052569      0.414388      0.156354
O            -0.430091     -0.409622     -0.110651
O             0.046508     -0.404257     -0.128335
O             0.449053      0.422114      0.107385
Fe            0.156040     -0.242062     -0.273604
Fe            0.353462     -0.069313      0.487161
Fe           -0.152880     -0.080056      0.279233
Fe           -0.370282     -0.255388     -0.498853
H            -0.092558     -0.243671     -0.451457
H            -0.411942     -0.088032      0.291527
H             0.063141     -0.072157      0.458185
H             0.429312     -0.208632     -0.302950
O            -0.197160     -0.257023      0.398988
O            -0.313345     -0.087891     -0.350164
O             0.201974     -0.087158     -0.400353
O             0.289867     -0.234115      0.342300
O            -0.051397     -0.261718     -0.353942
O            -0.450934     -0.077732      0.387969
O             0.042651     -0.084775      0.357512
O             0.441106     -0.237722     -0.402568
Fe            0.145675      0.070119     -0.273917
Fe            0.356397      0.270644      0.487929
Fe           -0.155294      0.240918      0.279890
Fe           -0.345569      0.078239     -0.466470
H            -0.065978      0.088235     -0.441300
H            -0.419818      0.260170      0.294951
H             0.075485      0.246107      0.474419
H             0.426237      0.069264     -0.296150
O            -0.205295      0.082075      0.402794
O            -0.276355      0.248363     -0.359656
O             0.191484      0.218054     -0.400437
O             0.287500      0.091924      0.364884
O            -0.043142      0.056463     -0.344713
O            -0.455694      0.232461      0.389050
O             0.034738      0.242236      0.376550
O             0.462246      0.071822     -0.394145
Cu            0.144719      0.414225     -0.273044
H             0.290551     -0.388463     -0.429454
Fe           -0.140716     -0.414305      0.264646
Fe           -0.360153      0.411228     -0.486509
H            -0.066544      0.407381     -0.457031
H            -0.381481     -0.417405      0.302143
H             0.089268     -0.386528      0.457319
H             0.437710      0.433644     -0.302653
O            -0.208360      0.414627      0.387454
O            -0.302315     -0.416119     -0.357571
O             0.199373     -0.396616     -0.402146
O             0.280167      0.420241      0.381942
O            -0.032622      0.411164     -0.357054
O            -0.441851     -0.401769      0.382978
O             0.050505     -0.402121      0.359485
O             0.474511      0.371751     -0.375967
H             0.129680     -0.422874     -0.009864
H             0.302716     -0.333089      0.375156
data_nwchem_pspw

_audit_creation_date   Wed Nov 22 03:17:08 2023
_audit_creation_method    generated by PSPW module of NWChem


_cell_length_a            10.0667
_cell_length_b             9.1552
_cell_length_c             9.2041
_cell_angle_alpha         90.0000
_cell_angle_beta          90.0000
_cell_angle_gamma         90.0000

_symmetry_space_group_name_H-M     P1  

loop_
_atom_site_type_symbol
_atom_site_fract_x
_atom_site_fract_y
_atom_site_fract_z
Fe            0.144489     -0.259303      0.240034
Fe            0.347092     -0.092294     -0.013359
Fe           -0.149912     -0.070014     -0.228894
Fe           -0.348254     -0.255811      0.030077
H            -0.102107     -0.221874      0.039677
H            -0.412744     -0.091256     -0.194599
H             0.075319     -0.033630     -0.054725
H             0.412137     -0.252606      0.201592
O            -0.186299     -0.233738     -0.104056
O            -0.304534     -0.080052      0.146966
O             0.198608     -0.098794      0.118600
O             0.302339     -0.263975     -0.146326
O            -0.054378     -0.229711      0.134071
O            -0.439088     -0.094266     -0.093727
O             0.050569     -0.063906     -0.148304
O             0.456132     -0.266797      0.106036
Fe            0.156342      0.068208      0.234710
Fe            0.351367      0.235677     -0.035432
Fe           -0.156763      0.249284     -0.230641
Fe           -0.343781      0.095461      0.025139
H            -0.069312      0.067448      0.047827
H            -0.408402      0.248592     -0.207141
H             0.073949      0.253994     -0.054750
H             0.415344      0.076427      0.199090
O            -0.187881      0.100756     -0.089904
O            -0.306796      0.256409      0.156585
O             0.205868      0.230281      0.099982
O             0.307353      0.073934     -0.150997
O            -0.040997      0.079955      0.148511
O            -0.447115      0.220758     -0.114322
O             0.045354      0.252900     -0.155332
O             0.436763      0.060540      0.098750
Fe            0.155245      0.392399      0.220742
Fe            0.366313     -0.427723     -0.048335
Fe           -0.160184     -0.404452     -0.231337
Fe           -0.351258      0.414851      0.023404
H            -0.083472      0.415357      0.042439
H            -0.434298     -0.413090     -0.215258
H             0.016161     -0.296969     -0.068094
H             0.422646      0.389155      0.187779
O            -0.194735      0.423115     -0.094697
O            -0.296336     -0.420921      0.143192
O             0.210265     -0.437608      0.093413
O             0.290706      0.418606     -0.153443
O            -0.051041      0.420854      0.142763
O            -0.446163     -0.422278     -0.111357
O             0.045182     -0.373004     -0.133299
O             0.442446      0.408224      0.087131
Fe            0.143883     -0.250957     -0.275312
Fe            0.355302     -0.079660      0.492695
Fe           -0.137299     -0.076446      0.277009
Fe           -0.372324     -0.245636     -0.485065
H            -0.091125     -0.238893     -0.454200
H            -0.401646     -0.066093      0.286910
H             0.098129     -0.089724      0.457266
H             0.416395     -0.268549     -0.293004
O            -0.190855     -0.256646      0.405269
O            -0.308714     -0.080367     -0.350355
O             0.194260     -0.070748     -0.388417
O             0.311925     -0.243399      0.349345
O            -0.050965     -0.238588     -0.357797
O            -0.444968     -0.068378      0.383850
O             0.063006     -0.096750      0.357370
O             0.452317     -0.216634     -0.374412
Fe            0.147158      0.076809     -0.265114
Fe            0.361519      0.261556      0.476248
Fe           -0.145292      0.258915      0.270123
Fe           -0.350122      0.093841     -0.460546
H            -0.096184      0.098887     -0.448721
H            -0.400960      0.272179      0.308923
H             0.072508      0.241449      0.452954
H             0.427178      0.104215     -0.291227
O            -0.206227      0.090689      0.394055
O            -0.297453      0.259755     -0.346002
O             0.191727      0.217681     -0.392569
O             0.298341      0.070962      0.358381
O            -0.071365      0.087242     -0.347034
O            -0.450001      0.253817      0.398223
O             0.055321      0.239595      0.349070
O             0.455845      0.090853     -0.389857
Cu            0.136001      0.410018     -0.287772
H             0.287905     -0.453754     -0.431927
Fe           -0.146623     -0.417308      0.272618
Fe           -0.356459      0.434202     -0.482721
H            -0.091904      0.472442     -0.452642
H            -0.413190     -0.448638      0.298121
H             0.082617     -0.427606      0.445795
H             0.407953      0.387541     -0.290594
O            -0.196839      0.414292      0.406427
O            -0.303931     -0.418707     -0.350972
O             0.201408     -0.420791     -0.405090
O             0.300138      0.403611      0.351340
O            -0.060919      0.445340     -0.356931
O            -0.463484     -0.424151      0.383359
O             0.064759     -0.435347      0.342006
O             0.448741      0.403821     -0.383896
H             0.129016     -0.438549      0.028864
H             0.347157     -0.336927      0.378159
data_nwchem_pspw

_audit_creation_date   Wed Nov 22 04:52:42 2023
_audit_creation_method    generated by PSPW module of NWChem


_cell_length_a            10.0667
_cell_length_b             9.1552
_cell_length_c             9.2041
_cell_angle_alpha         90.0000
_cell_angle_beta          90.0000
_cell_angle_gamma         90.0000

_symmetry_space_group_name_H-M     P1  

loop_
_atom_site_type_symbol
_atom_site_fract_x
_atom_site_fract_y
_atom_site_fract_z
Fe            0.135360     -0.247128      0.213359
Fe            0.362917     -0.079648     -0.023190
Fe           -0.137339     -0.095888     -0.242363
Fe           -0.348472     -0.242628      0.028914
H            -0.086945     -0.275638      0.047570
H            -0.412941     -0.096279     -0.204509
H             0.082192     -0.047881     -0.050038
H             0.403995     -0.256911      0.192991
O            -0.198613     -0.236405     -0.095921
O            -0.297391     -0.086553      0.170334
O             0.204531     -0.072733      0.112065
O             0.306617     -0.247563     -0.166221
O            -0.060510     -0.265450      0.150730
O            -0.439003     -0.078745     -0.105246
O             0.072624     -0.073168     -0.151564
O             0.449558     -0.245019      0.097919
Fe            0.135941      0.090745      0.234436
Fe            0.342229      0.237426     -0.026222
Fe           -0.137874      0.242518     -0.211233
Fe           -0.348611      0.080007      0.026726
H            -0.086986      0.089001      0.054266
H            -0.420389      0.238475     -0.198268
H             0.095838      0.256908     -0.050061
H             0.408668      0.061591      0.204043
O            -0.199484      0.082662     -0.109520
O            -0.295726      0.241569      0.154017
O             0.169987      0.258971      0.087226
O             0.303410      0.085011     -0.163231
O            -0.062714      0.081949      0.155514
O            -0.444868      0.251736     -0.096693
O             0.053574      0.239867     -0.147006
O             0.439833      0.085660      0.105422
Fe            0.161381      0.410255      0.236501
Fe            0.355253     -0.416431     -0.045421
Fe           -0.156619     -0.418657     -0.229729
Fe           -0.353692      0.415519      0.028641
H            -0.043806      0.444057      0.058754
H            -0.405399     -0.418353     -0.208759
H             0.044508     -0.261681     -0.110893
H             0.410444      0.405245      0.183846
O            -0.197762      0.417544     -0.090681
O            -0.293677     -0.408921      0.161875
O             0.197600     -0.409327      0.082587
O             0.290434      0.415998     -0.152435
O            -0.031469      0.425849      0.159899
O            -0.439940     -0.408373     -0.109763
O             0.043773     -0.366121     -0.127477
O             0.443599      0.429969      0.087318
Fe            0.166162     -0.255960     -0.303958
Fe            0.353640     -0.076836      0.463910
Fe           -0.148095     -0.078032      0.297680
Fe           -0.367586     -0.255260     -0.488286
H            -0.065410     -0.258088     -0.459855
H            -0.400328     -0.077204      0.295605
H             0.070634     -0.052065      0.457943
H             0.420376     -0.235344     -0.314208
O            -0.202622     -0.253387      0.415220
O            -0.298015     -0.083224     -0.356836
O             0.182468     -0.078228     -0.412643
O             0.310412     -0.261954      0.328236
O            -0.037245     -0.274849     -0.360988
O            -0.449887     -0.067541      0.388386
O             0.046981     -0.083546      0.360802
O             0.443436     -0.235836     -0.416349
Fe            0.147382      0.086759     -0.284043
Fe            0.353436      0.250296      0.472941
Fe           -0.143210      0.256556      0.285547
Fe           -0.357370      0.083395     -0.469344
H            -0.077765      0.100438     -0.455513
H            -0.425826      0.254326      0.303830
H             0.068073      0.232843      0.470752
H             0.399465      0.082157     -0.301310
O            -0.198419      0.092380      0.409382
O            -0.294251      0.254582     -0.347108
O             0.203443      0.246427     -0.399398
O             0.303725      0.085699      0.334690
O            -0.046379      0.069745     -0.359221
O            -0.440324      0.246866      0.407131
O             0.045059      0.221757      0.371136
O             0.432812      0.076786     -0.401342
Cu            0.131457      0.418145     -0.266277
H             0.287001     -0.471184     -0.435789
Fe           -0.138529     -0.416186      0.282462
Fe           -0.368397      0.416614     -0.461471
H            -0.079982      0.405991     -0.440066
H            -0.388160     -0.446776      0.300592
H             0.107448     -0.412824      0.462202
H             0.422821      0.393045     -0.284904
O            -0.202377      0.413501      0.398796
O            -0.312579     -0.410656     -0.339440
O             0.200763     -0.437225     -0.408046
O             0.309054      0.400634      0.349836
O            -0.057790      0.416480     -0.337189
O            -0.428279     -0.423779      0.393228
O             0.068465     -0.421100      0.363810
O             0.446965      0.379968     -0.384971
H             0.127797     -0.401208     -0.006863
H             0.345562     -0.350418      0.369857
data_nwchem_pspw

_audit_creation_date   Wed Nov 22 06:57:51 2023
_audit_creation_method    generated by PSPW module of NWChem


_cell_length_a            10.0667
_cell_length_b             9.1552
_cell_length_c             9.2041
_cell_angle_alpha         90.0000
_cell_angle_beta          90.0000
_cell_angle_gamma         90.0000

_symmetry_space_group_name_H-M     P1  

loop_
_atom_site_type_symbol
_atom_site_fract_x
_atom_site_fract_y
_atom_site_fract_z
Fe            0.141751     -0.252356      0.236950
Fe            0.353727     -0.080442     -0.014527
Fe           -0.136656     -0.084256     -0.238084
Fe           -0.335309     -0.245549      0.020009
H            -0.097578     -0.243586      0.074085
H            -0.443737     -0.093308     -0.201227
H             0.089865     -0.084431     -0.044485
H             0.411592     -0.255882      0.197234
O            -0.183850     -0.239819     -0.100183
O            -0.292425     -0.066769      0.144936
O             0.183299     -0.100187      0.086247
O             0.305150     -0.259309     -0.140392
O            -0.061477     -0.246277      0.169503
O            -0.439055     -0.090474     -0.096867
O             0.056800     -0.072538     -0.147204
O             0.457394     -0.247683      0.103563
Fe            0.149883      0.080810      0.223563
Fe            0.351136      0.255172     -0.038424
Fe           -0.140507      0.257144     -0.223693
Fe           -0.350580      0.076153     -0.000963
H            -0.087032      0.074183      0.055970
H            -0.420969      0.233501     -0.215277
H             0.094353      0.267765     -0.057013
H             0.420243      0.095389      0.196199
O            -0.180616      0.078656     -0.096300
O            -0.317837      0.247574      0.158936
O             0.191292      0.254076      0.094285
O             0.320561      0.091042     -0.160211
O            -0.051349      0.078456      0.156010
O            -0.454456      0.240686     -0.117042
O             0.051195      0.266214     -0.153808
O             0.452326      0.085780      0.099781
Fe            0.141167      0.395582      0.241939
Fe            0.375562     -0.419387     -0.034007
Fe           -0.147365     -0.408777     -0.240284
Fe           -0.350671      0.414382      0.026484
H            -0.066011      0.431808      0.035927
H            -0.405112     -0.439053     -0.208011
H            -0.013250     -0.322616     -0.051301
H             0.418891      0.388144      0.188351
O            -0.196619      0.432397     -0.104883
O            -0.303031     -0.400078      0.142499
O             0.205700     -0.414894      0.095301
O             0.285017      0.424267     -0.161560
O            -0.056532      0.417730      0.137076
O            -0.438469     -0.434242     -0.106250
O             0.040943     -0.383569     -0.109061
O             0.455121      0.409458      0.093869
Fe            0.148338     -0.240264     -0.260575
Fe            0.359690     -0.093749      0.489021
Fe           -0.145491     -0.076373      0.286251
Fe           -0.352648     -0.248674     -0.487042
H            -0.066513     -0.252578     -0.465511
H            -0.423672     -0.055694      0.286706
H             0.094639     -0.068829      0.458174
H             0.408368     -0.268933     -0.306382
O            -0.194089     -0.254339      0.399388
O            -0.287617     -0.094857     -0.367743
O             0.214439     -0.090672     -0.379663
O             0.309667     -0.257794      0.342032
O            -0.046730     -0.264460     -0.363674
O            -0.452380     -0.086494      0.382264
O             0.051000     -0.073277      0.366143
O             0.460770     -0.245710     -0.390789
Fe            0.145537      0.096319     -0.266145
Fe            0.347184      0.249082      0.485342
Fe           -0.160844      0.256503      0.260006
Fe           -0.346148      0.089469     -0.479885
H            -0.076587      0.085072     -0.450974
H            -0.431064      0.246019      0.291171
H             0.070086      0.253700      0.454268
H             0.427814      0.055311     -0.294679
O            -0.198000      0.087680      0.400037
O            -0.294314      0.250755     -0.356047
O             0.190113      0.237873     -0.410744
O             0.296440      0.071476      0.361477
O            -0.040044      0.072099     -0.354472
O            -0.453254      0.235708      0.391436
O             0.033599      0.248140      0.354996
O             0.456714      0.064000     -0.395188
Cu            0.133336      0.417944     -0.268530
H             0.299189     -0.432914     -0.406110
Fe           -0.158504     -0.425515      0.281465
Fe           -0.378438      0.413132     -0.471203
H            -0.109564      0.405899     -0.446690
H            -0.410714     -0.407143      0.302208
H             0.100827     -0.429190      0.440919
H             0.414504      0.392326     -0.291974
O            -0.223548      0.404366      0.402430
O            -0.313633     -0.425070     -0.350632
O             0.207987     -0.399796     -0.397866
O             0.297497      0.394447      0.351270
O            -0.060839      0.417903     -0.355187
O            -0.444083     -0.409788      0.400841
O             0.058721     -0.423456      0.344732
O             0.439079      0.400989     -0.392293
H             0.127307     -0.418602      0.029840
H             0.360328     -0.340960      0.373703
data_nwchem_pspw

_audit_creation_date   Wed Nov 22 08:50:27 2023
_audit_creation_method    generated by PSPW module of NWChem


_cell_length_a            10.0667
_cell_length_b             9.1552
_cell_length_c             9.2041
_cell_angle_alpha         90.0000
_cell_angle_beta          90.0000
_cell_angle_gamma         90.0000

_symmetry_space_group_name_H-M     P1  

loop_
_atom_site_type_symbol
_atom_site_fract_x
_atom_site_fract_y
_atom_site_fract_z
Fe            0.136531     -0.255685      0.228516
Fe            0.355863     -0.094749     -0.029118
Fe           -0.143948     -0.081058     -0.237415
Fe           -0.354757     -0.262197      0.025863
H            -0.096173     -0.257370      0.033486
H            -0.400337     -0.099525     -0.199074
H             0.090048     -0.087136     -0.054875
H             0.421916     -0.259832      0.200908
O            -0.197310     -0.257199     -0.090448
O            -0.306351     -0.079295      0.149584
O             0.205138     -0.098771      0.095498
O             0.305528     -0.265191     -0.145964
O            -0.045687     -0.245658      0.127062
O            -0.436968     -0.086846     -0.100953
O             0.053984     -0.081895     -0.151837
O             0.441034     -0.240954      0.099035
Fe            0.154087      0.071160      0.218533
Fe            0.337498      0.241291     -0.027185
Fe           -0.143331      0.252056     -0.228099
Fe           -0.360313      0.082390      0.024972
H            -0.090753      0.106583      0.056335
H            -0.444167      0.259135     -0.202584
H             0.072106      0.267179     -0.054467
H             0.422122      0.061567      0.197119
O            -0.210669      0.082364     -0.099685
O            -0.300249      0.239185      0.153291
O             0.193450      0.247407      0.089431
O             0.275423      0.076479     -0.160075
O            -0.049451      0.091896      0.150425
O            -0.459039      0.263889     -0.099844
O             0.043197      0.239128     -0.150320
O             0.442818      0.078467      0.094573
Fe            0.148544      0.406380      0.246279
Fe            0.367865     -0.432924     -0.027236
Fe           -0.149498     -0.418021     -0.234838
Fe           -0.348850      0.412632      0.035110
H            -0.072125      0.446641      0.062776
H            -0.400279     -0.421806     -0.194367
H             0.013875     -0.350502     -0.063402
H             0.411222      0.417381      0.217302
O            -0.190079      0.434834     -0.103418
O            -0.299061     -0.406227      0.162328
O             0.192823     -0.423720      0.095925
O             0.296145      0.417113     -0.140319
O            -0.047848      0.427258      0.163236
O            -0.439348     -0.418732     -0.100156
O             0.044135     -0.405741     -0.145392
O             0.441485      0.409814      0.115484
Fe            0.149340     -0.251781     -0.280677
Fe            0.372909     -0.085817      0.481157
Fe           -0.150531     -0.067780      0.265475
Fe           -0.357984     -0.236587     -0.488982
H            -0.084192     -0.262504     -0.452940
H            -0.427737     -0.085157      0.287424
H             0.086560     -0.069879      0.436216
H             0.414793     -0.237522     -0.295714
O            -0.187484     -0.238602      0.411495
O            -0.306135     -0.077279     -0.345103
O             0.196614     -0.090835     -0.410270
O             0.319022     -0.263184      0.343187
O            -0.042362     -0.248666     -0.358349
O            -0.440046     -0.076660      0.391448
O             0.056086     -0.079603      0.337759
O             0.456253     -0.233945     -0.390589
Fe            0.136233      0.073692     -0.289411
Fe            0.358772      0.252929      0.481062
Fe           -0.142989      0.256885      0.290395
Fe           -0.342272      0.093860     -0.470919
H            -0.093041      0.094324     -0.451586
H            -0.399776      0.235419      0.295832
H             0.097020      0.232759      0.461080
H             0.385623      0.064026     -0.296732
O            -0.196972      0.089633      0.404077
O            -0.294208      0.263621     -0.358304
O             0.190234      0.233571     -0.402820
O             0.315541      0.068642      0.352146
O            -0.045400      0.073804     -0.363514
O            -0.444026      0.249671      0.390106
O             0.059234      0.238107      0.361475
O             0.440120      0.070473     -0.385050
Cu            0.122568      0.399742     -0.270663
H             0.284554     -0.462542     -0.425572
Fe           -0.142043     -0.394765      0.285160
Fe           -0.359008      0.439695     -0.486395
H            -0.092928      0.428056     -0.453495
H            -0.430497     -0.426232      0.299660
H             0.101739     -0.395275      0.458877
H             0.426984      0.409937     -0.298706
O            -0.200711      0.445885      0.407536
O            -0.289385     -0.410451     -0.353224
O             0.198469     -0.425947     -0.395761
O             0.298324      0.406462      0.365229
O            -0.063883      0.418707     -0.352308
O            -0.442824     -0.398322      0.399884
O             0.055121     -0.405790      0.364690
O             0.456661      0.420536     -0.396065
H             0.137110     -0.453874      0.012374
H             0.337142     -0.353050      0.393575
data_nwchem_pspw

_audit_creation_date   Wed Nov 22 10:49:01 2023
_audit_creation_method    generated by PSPW module of NWChem


_cell_length_a            10.0667
_cell_length_b             9.1552
_cell_length_c             9.2041
_cell_angle_alpha         90.0000
_cell_angle_beta          90.0000
_cell_angle_gamma         90.0000

_symmetry_space_group_name_H-M     P1  

loop_
_atom_site_type_symbol
_atom_site_fract_x
_atom_site_fract_y
_atom_site_fract_z
Fe            0.147273     -0.243522      0.214819
Fe            0.342262     -0.073074     -0.030237
Fe           -0.142774     -0.088528     -0.227180
Fe           -0.352932     -0.260660      0.028768
H            -0.110338     -0.260004      0.036977
H            -0.406739     -0.080836     -0.204460
H             0.087584     -0.084338     -0.043286
H             0.457231     -0.246443      0.201424
O            -0.199343     -0.266056     -0.108131
O            -0.306831     -0.090694      0.142083
O             0.187477     -0.083427      0.080136
O             0.309309     -0.231924     -0.169717
O            -0.055601     -0.257664      0.126874
O            -0.440471     -0.092312     -0.105696
O             0.044172     -0.072828     -0.138495
O             0.460845     -0.239939      0.097787
Fe            0.140979      0.078225      0.211690
Fe            0.349886      0.268117     -0.027360
Fe           -0.139783      0.260231     -0.223615
Fe           -0.361925      0.076819      0.028184
H            -0.102384      0.075391      0.039949
H            -0.402217      0.265310     -0.196628
H             0.077361      0.250731     -0.048118
H             0.421399      0.074422      0.202254
O            -0.197488      0.091416     -0.092921
O            -0.304139      0.247881      0.154837
O             0.193831      0.251221      0.097280
O             0.319408      0.094212     -0.158690
O            -0.054937      0.078538      0.135407
O            -0.440867      0.247128     -0.101967
O             0.057724      0.251801     -0.151476
O             0.447191      0.080422      0.100726
Fe            0.150201      0.396845      0.250725
Fe            0.357869     -0.399494     -0.039838
Fe           -0.139636     -0.432694     -0.230652
Fe           -0.349484      0.417306      0.029229
H            -0.066262      0.416380      0.054357
H            -0.425057     -0.439344     -0.220031
H             0.013774     -0.346635     -0.036896
H             0.403363      0.436680      0.192412
O            -0.197241      0.419664     -0.081683
O            -0.311683     -0.405578      0.172555
O             0.203802     -0.434218      0.106386
O             0.298964      0.436304     -0.153427
O            -0.046739      0.387558      0.153251
O            -0.448530     -0.431624     -0.118340
O             0.050162     -0.395891     -0.119858
O             0.450736      0.424212      0.102624
Fe            0.139374     -0.233212     -0.267737
Fe            0.346134     -0.080845      0.480026
Fe           -0.143243     -0.084814      0.266985
Fe           -0.361440     -0.252443     -0.487561
H            -0.086828     -0.227859     -0.453315
H            -0.433456     -0.070233      0.303228
H             0.102225     -0.098654      0.439510
H             0.439059     -0.240873     -0.318121
O            -0.201492     -0.262340      0.391519
O            -0.299842     -0.087479     -0.349514
O             0.201152     -0.080319     -0.391224
O             0.298564     -0.252851      0.358649
O            -0.053620     -0.247789     -0.355469
O            -0.458642     -0.072097      0.404163
O             0.065238     -0.095503      0.344116
O             0.448025     -0.239534     -0.422208
Fe            0.153039      0.090256     -0.284795
Fe            0.365454      0.254738      0.490110
Fe           -0.152279      0.243706      0.279579
Fe           -0.350141      0.081549     -0.470055
H            -0.074611      0.067875     -0.448364
H            -0.444721      0.250599      0.309556
H             0.091996      0.215427      0.452380
H             0.411380      0.080488     -0.292350
O            -0.194914      0.083423      0.415375
O            -0.294509      0.244017     -0.343825
O             0.195277      0.245985     -0.404286
O             0.293194      0.073811      0.345379
O            -0.048769      0.077109     -0.347859
O            -0.443380      0.237944      0.412050
O             0.046534      0.232616      0.358902
O             0.445778      0.084904     -0.394095
Cu            0.146268      0.423425     -0.286835
H             0.287591     -0.395231     -0.403196
Fe           -0.144830     -0.426987      0.277283
Fe           -0.360908      0.419367     -0.464247
H            -0.090997      0.423077     -0.455343
H            -0.397840     -0.423064      0.305278
H             0.091688     -0.443113      0.456866
H             0.412256      0.402273     -0.290398
O            -0.204875      0.420175      0.406627
O            -0.293115     -0.414538     -0.351065
O             0.193874     -0.409493     -0.400035
O             0.317207      0.389260      0.350944
O            -0.055661      0.420450     -0.353912
O            -0.449557     -0.424055      0.395678
O             0.067918     -0.440768      0.355801
O             0.448142      0.409463     -0.387719
H             0.133115     -0.455298      0.021588
H             0.340796     -0.336230      0.401996
data_nwchem_pspw

_audit_creation_date   Wed Nov 22 12:48:57 2023
_audit_creation_method    generated by PSPW module of NWChem


_cell_length_a            10.0667
_cell_length_b             9.1552
_cell_length_c             9.2041
_cell_angle_alpha         90.0000
_cell_angle_beta          90.0000
_cell_angle_gamma         90.0000

_symmetry_space_group_name_H-M     P1  

loop_
_atom_site_type_symbol
_atom_site_fract_x
_atom_site_fract_y
_atom_site_fract_z
Fe            0.138547     -0.261555      0.236834
Fe            0.348420     -0.076964     -0.017248
Fe           -0.162201     -0.078152     -0.237601
Fe           -0.343178     -0.232424      0.027589
H            -0.089245     -0.229112      0.053577
H            -0.407677     -0.062770     -0.217337
H             0.070763     -0.092057     -0.057417
H             0.428003     -0.248312      0.200945
O            -0.184525     -0.238681     -0.093353
O            -0.317502     -0.061205      0.157420
O             0.206796     -0.095987      0.114893
O             0.305720     -0.252697     -0.143922
O            -0.050093     -0.245888      0.150820
O            -0.444938     -0.074080     -0.121434
O             0.061202     -0.085322     -0.161553
O             0.450919     -0.244312      0.096468
Fe            0.150307      0.068669      0.237364
Fe            0.355639      0.253814     -0.024742
Fe           -0.140241      0.246753     -0.224104
Fe           -0.351458      0.088110      0.022393
H            -0.091737      0.072207      0.049764
H            -0.404924      0.250192     -0.204527
H             0.075762      0.251917     -0.047621
H             0.416108      0.120105      0.204130
O            -0.184269      0.083163     -0.083610
O            -0.280787      0.257459      0.143063
O             0.187370      0.241443      0.096331
O             0.296908      0.077362     -0.155800
O            -0.048665      0.064278      0.147544
O            -0.448195      0.263474     -0.109738
O             0.053650      0.250558     -0.151162
O             0.440779      0.086326      0.109633
Fe            0.143024      0.396640      0.243145
Fe            0.386599     -0.408369     -0.035549
Fe           -0.135901     -0.428486     -0.248461
Fe           -0.339650      0.432015      0.018467
H            -0.073737      0.420687      0.063900
H            -0.393862     -0.399764     -0.209178
H             0.008189     -0.334081     -0.051095
H             0.423207      0.430833      0.203051
O            -0.182374      0.422534     -0.098628
O            -0.310317     -0.398016      0.147843
O             0.208223     -0.431032      0.104125
O             0.307191      0.418053     -0.142968
O            -0.042796      0.404718      0.164144
O            -0.409999     -0.397942     -0.101516
O             0.037791     -0.401613     -0.124176
O             0.455539      0.407909      0.105348
Fe            0.153104     -0.268508     -0.268208
Fe            0.348054     -0.095644      0.481276
Fe           -0.162276     -0.071145      0.273969
Fe           -0.364902     -0.254466     -0.493362
H            -0.082865     -0.243370     -0.462449
H            -0.440813     -0.073106      0.296377
H             0.047706     -0.055414      0.447913
H             0.426335     -0.245663     -0.298891
O            -0.215105     -0.243539      0.375863
O            -0.306789     -0.090194     -0.358430
O             0.203112     -0.086238     -0.391602
O             0.322475     -0.248401      0.338703
O            -0.050709     -0.246428     -0.365154
O            -0.457001     -0.071182      0.399208
O             0.036220     -0.094547      0.352157
O             0.448348     -0.249598     -0.400134
Fe            0.139621      0.073354     -0.273355
Fe            0.355720      0.246252      0.470739
Fe           -0.151963      0.264668      0.286019
Fe           -0.359619      0.089120     -0.483153
H            -0.092198      0.100856     -0.452518
H            -0.421196      0.234964      0.290526
H             0.092765      0.217901      0.459867
H             0.425130      0.076880     -0.283758
O            -0.195367      0.092223      0.406871
O            -0.288882      0.237602     -0.345871
O             0.194463      0.220738     -0.398824
O             0.298779      0.079053      0.362832
O            -0.060168      0.075449     -0.355448
O            -0.440654      0.249058      0.391272
O             0.050578      0.236858      0.362829
O             0.454017      0.079177     -0.383641
Cu            0.147767      0.413959     -0.278593
H             0.282209     -0.427245     -0.429683
Fe           -0.148790     -0.415861      0.275241
Fe           -0.373824      0.429946     -0.474480
H            -0.078323      0.394032     -0.456076
H            -0.412029     -0.399299      0.287533
H             0.078733     -0.404077      0.463906
H             0.411140      0.385412     -0.299187
O            -0.209796      0.428787      0.411452
O            -0.295191     -0.416963     -0.359493
O             0.189849     -0.418040     -0.405317
O             0.297901      0.406114      0.348341
O            -0.040543      0.398277     -0.358763
O            -0.456477     -0.410196      0.382731
O             0.044958     -0.410676      0.364510
O             0.436021      0.396699     -0.401511
H             0.151186     -0.439205      0.016078
H             0.355938     -0.338651      0.378951
data_nwchem_pspw

_audit_creation_date   Wed Nov 22 18:03:09 2023
_audit_creation_method    generated by PSPW module of NWChem


_cell_length_a            10.0667
_cell_length_b             9.1552
_cell_length_c             9.2041
_cell_angle_alpha         90.0000
_cell_angle_beta          90.0000
_cell_angle_gamma         90.0000

_symmetry_space_group_name_H-M     P1  

loop_
_atom_site_type_symbol
_atom_site_fract_x
_atom_site_fract_y
_atom_site_fract_z
Fe            0.144364     -0.241031      0.235751
Fe            0.351567     -0.092904     -0.023906
Fe           -0.143718     -0.078394     -0.239357
Fe           -0.353692     -0.255936      0.009341
H            -0.083043     -0.212589      0.051374
H            -0.405479     -0.094544     -0.220584
H             0.082080     -0.080141     -0.059694
H             0.436474     -0.253793      0.198831
O            -0.188951     -0.264305     -0.102006
O            -0.304045     -0.083175      0.146029
O             0.192855     -0.086355      0.095789
O             0.305064     -0.250366     -0.156415
O            -0.051811     -0.240695      0.146040
O            -0.444820     -0.085858     -0.121009
O             0.046118     -0.075702     -0.158977
O             0.450929     -0.253613      0.095739
Fe            0.155492      0.084112      0.236727
Fe            0.359795      0.218037     -0.032802
Fe           -0.161674      0.257010     -0.210734
Fe           -0.363896      0.069700      0.018457
H            -0.076432      0.084898      0.048640
H            -0.424708      0.287598     -0.190001
H             0.080812      0.237457     -0.047254
H             0.444026      0.064838      0.203754
O            -0.195467      0.072394     -0.112268
O            -0.323479      0.237589      0.153074
O             0.221441      0.227107      0.101074
O             0.295573      0.066730     -0.162519
O            -0.049128      0.101622      0.147726
O            -0.436773      0.253010     -0.093680
O             0.057166      0.239453     -0.148123
O             0.455826      0.066070      0.099309
Fe            0.157281      0.411369      0.236916
Fe            0.354224     -0.425785     -0.027128
Fe           -0.158091     -0.418010     -0.245121
Fe           -0.357331      0.421415      0.040404
H            -0.074970      0.416053      0.050158
H            -0.428070     -0.437088     -0.213053
H            -0.014399     -0.303157     -0.074283
H             0.418742      0.394692      0.200148
O            -0.196626      0.421312     -0.076790
O            -0.283897     -0.414820      0.154727
O             0.195763     -0.414667      0.107373
O             0.301646      0.407438     -0.138974
O            -0.040455      0.423171      0.149590
O            -0.452699     -0.431095     -0.108275
O             0.044352     -0.375687     -0.114089
O             0.443738      0.406234      0.099733
Fe            0.151760     -0.239753     -0.276304
Fe            0.371375     -0.073188      0.483396
Fe           -0.154696     -0.077635      0.277830
Fe           -0.357917     -0.252314     -0.499862
H            -0.097930     -0.255806     -0.451672
H            -0.438047     -0.052395      0.285727
H             0.067157     -0.085523      0.455655
H             0.460523     -0.220004     -0.315001
O            -0.201175     -0.250284      0.398036
O            -0.312119     -0.096441     -0.358563
O             0.206606     -0.074827     -0.407894
O             0.315117     -0.238836      0.355388
O            -0.059397     -0.260160     -0.352025
O            -0.446252     -0.075367      0.386927
O             0.044393     -0.083598      0.354026
O             0.447718     -0.252650     -0.412654
Fe            0.145963      0.089389     -0.297898
Fe            0.360004      0.248557      0.480688
Fe           -0.161431      0.254354      0.272371
Fe           -0.355191      0.084784     -0.468616
H            -0.076515      0.128991     -0.457170
H            -0.415093      0.238299      0.299683
H             0.094778      0.238863      0.454055
H             0.406415      0.084916     -0.296971
O            -0.196694      0.090335      0.406800
O            -0.303791      0.243147     -0.339595
O             0.201471      0.261613     -0.393394
O             0.312545      0.083028      0.352565
O            -0.059191      0.105340     -0.357830
O            -0.446224      0.251035      0.402338
O             0.054329      0.246557      0.359033
O             0.456604      0.080957     -0.388446
Cu            0.137432      0.423356     -0.252619
H             0.281307     -0.439758     -0.410535
Fe           -0.123708     -0.413909      0.274884
Fe           -0.360865      0.422120     -0.481471
H            -0.083071      0.403290     -0.451202
H            -0.399451     -0.412569      0.287276
H             0.085305     -0.427492      0.457466
H             0.444393      0.388528     -0.300823
O            -0.190797      0.421815      0.418391
O            -0.324190     -0.424213     -0.343439
O             0.188208     -0.421874     -0.393366
O             0.309816      0.401464      0.348141
O            -0.063594      0.412592     -0.347147
O            -0.435751     -0.412895      0.386686
O             0.057216     -0.409265      0.357094
O             0.458790      0.406043     -0.403274
H             0.095690     -0.412082     -0.027107
H             0.335033     -0.329903      0.400761
data_nwchem_pspw

_audit_creation_date   Wed Nov 22 20:00:57 2023
_audit_creation_method    generated by PSPW module of NWChem


_cell_length_a            10.0667
_cell_length_b             9.1552
_cell_length_c             9.2041
_cell_angle_alpha         90.0000
_cell_angle_beta          90.0000
_cell_angle_gamma         90.0000

_symmetry_space_group_name_H-M     P1  

loop_
_atom_site_type_symbol
_atom_site_fract_x
_atom_site_fract_y
_atom_site_fract_z
Fe            0.136195     -0.257025      0.240914
Fe            0.346484     -0.077835     -0.022612
Fe           -0.142740     -0.076431     -0.228249
Fe           -0.346664     -0.239441      0.009244
H            -0.073985     -0.211511      0.060527
H            -0.438912     -0.085088     -0.217899
H             0.085691     -0.065663     -0.050722
H             0.475383     -0.205021      0.206716
O            -0.193332     -0.240073     -0.098727
O            -0.313638     -0.081603      0.156055
O             0.192663     -0.086525      0.097583
O             0.316458     -0.250039     -0.139191
O            -0.044698     -0.251218      0.152185
O            -0.454986     -0.084598     -0.113945
O             0.059885     -0.059566     -0.152487
O             0.469711     -0.235969      0.107871
Fe            0.138313      0.072312      0.231133
Fe            0.338525      0.258221     -0.027191
Fe           -0.145857      0.247989     -0.203128
Fe           -0.365925      0.086577      0.020157
H            -0.088228      0.094387      0.046640
H            -0.424298      0.272045     -0.206469
H             0.076246      0.237154     -0.041708
H             0.418072      0.063471      0.214371
O            -0.222922      0.070975     -0.108819
O            -0.295510      0.245709      0.152595
O             0.188921      0.241215      0.103421
O             0.314866      0.092932     -0.168825
O            -0.058638      0.087860      0.144731
O            -0.459564      0.270096     -0.107978
O             0.053593      0.263217     -0.138014
O             0.443770      0.087558      0.114824
Fe            0.138277      0.402260      0.223839
Fe            0.372392     -0.423105     -0.032032
Fe           -0.142704     -0.419443     -0.238715
Fe           -0.358451      0.414349      0.041151
H            -0.072552      0.424336      0.047713
H            -0.401487     -0.416909     -0.204893
H             0.010431     -0.363691     -0.039692
H             0.427321      0.428041      0.205029
O            -0.209171      0.413763     -0.104387
O            -0.301474     -0.408591      0.150658
O             0.206207     -0.419064      0.094756
O             0.293139      0.409311     -0.161884
O            -0.039622      0.410044      0.146181
O            -0.440248     -0.403790     -0.107462
O             0.044497     -0.400064     -0.130827
O             0.448794      0.415996      0.102837
Fe            0.155844     -0.249523     -0.269715
Fe            0.358860     -0.101073      0.482665
Fe           -0.155269     -0.068695      0.290638
Fe           -0.367768     -0.260310     -0.478787
H            -0.052914     -0.239886     -0.453579
H            -0.407549     -0.070498      0.299243
H             0.078231     -0.101230      0.458416
H             0.419728     -0.262690     -0.288296
O            -0.190196     -0.252355      0.407312
O            -0.289344     -0.091668     -0.355088
O             0.213407     -0.080932     -0.398876
O             0.304364     -0.265125      0.347529
O            -0.033303     -0.236357     -0.351496
O            -0.441261     -0.087959      0.398149
O             0.052250     -0.094915      0.357562
O             0.455147     -0.254916     -0.386174
Fe            0.165645      0.090887     -0.283648
Fe            0.352880      0.248594      0.448641
Fe           -0.148575      0.247944      0.281451
Fe           -0.345632      0.082689     -0.462836
H            -0.074819      0.102752     -0.440082
H            -0.398648      0.265874      0.302234
H             0.099822      0.268071      0.449988
H             0.446165      0.123037     -0.307612
O            -0.199488      0.089173      0.410130
O            -0.281140      0.256049     -0.352795
O             0.210164      0.237842     -0.420737
O             0.294240      0.069123      0.356940
O            -0.039551      0.105524     -0.341929
O            -0.439728      0.250053      0.395551
O             0.053143      0.259933      0.355821
O             0.466268      0.074834     -0.396151
Cu            0.139771      0.412066     -0.286719
H             0.301873     -0.427861     -0.429190
Fe           -0.152078     -0.412176      0.279471
Fe           -0.370255      0.411847     -0.475133
H            -0.060984      0.458683     -0.462084
H            -0.415475     -0.405447      0.294743
H             0.133063     -0.424528      0.422860
H             0.390112      0.402514     -0.320637
O            -0.207255      0.427145      0.387275
O            -0.301885     -0.423859     -0.357265
O             0.208669     -0.414854     -0.411102
O             0.288204      0.382352      0.323024
O            -0.037145      0.433283     -0.362129
O            -0.450799     -0.406257      0.392360
O             0.060569     -0.433458      0.352193
O             0.452866      0.391773     -0.400319
H             0.154829     -0.422406      0.002816
H             0.373653     -0.338351      0.340661
data_nwchem_pspw

_audit_creation_date   Wed Nov 22 22:23:11 2023
_audit_creation_method    generated by PSPW module of NWChem


_cell_length_a            10.0667
_cell_length_b             9.1552
_cell_length_c             9.2041
_cell_angle_alpha         90.0000
_cell_angle_beta          90.0000
_cell_angle_gamma         90.0000

_symmetry_space_group_name_H-M     P1  

loop_
_atom_site_type_symbol
_atom_site_fract_x
_atom_site_fract_y
_atom_site_fract_z
Fe            0.143790     -0.238724      0.230607
Fe            0.356482     -0.078905     -0.033112
Fe           -0.141608     -0.092260     -0.247700
Fe           -0.344820     -0.261676      0.014516
H            -0.083250     -0.241567      0.061473
H            -0.418212     -0.091893     -0.201704
H             0.077427     -0.090280     -0.049608
H             0.434914     -0.225861      0.181895
O            -0.181111     -0.258713     -0.094393
O            -0.296892     -0.102673      0.149007
O             0.195449     -0.083051      0.091955
O             0.294887     -0.264412     -0.128008
O            -0.058952     -0.254582      0.160248
O            -0.439876     -0.087035     -0.099067
O             0.046295     -0.067861     -0.146044
O             0.453850     -0.247422      0.081394
Fe            0.157613      0.095750      0.219786
Fe            0.364604      0.255626     -0.037555
Fe           -0.152451      0.241133     -0.209970
Fe           -0.342451      0.078378      0.021212
H            -0.052657      0.068313      0.057081
H            -0.409717      0.232044     -0.203603
H             0.073226      0.244213     -0.040966
H             0.422715      0.101473      0.199406
O            -0.196882      0.058575     -0.102639
O            -0.302507      0.241668      0.158291
O             0.210011      0.262619      0.091003
O             0.315487      0.088542     -0.177612
O            -0.050048      0.087363      0.159865
O            -0.434516      0.252030     -0.102749
O             0.049620      0.235477     -0.142741
O             0.444760      0.095159      0.098720
Fe            0.138674      0.421028      0.229057
Fe            0.366912     -0.427073     -0.021061
Fe           -0.143244     -0.420058     -0.237573
Fe           -0.341212      0.408927      0.032284
H            -0.075851      0.429277      0.050855
H            -0.405851     -0.407870     -0.200090
H            -0.005184     -0.313192     -0.080030
H             0.415264      0.383410      0.193216
O            -0.186207      0.404613     -0.088094
O            -0.305390     -0.425501      0.161933
O             0.182964     -0.425993      0.090155
O             0.306134      0.422318     -0.153328
O            -0.047938      0.426192      0.153143
O            -0.437366     -0.431945     -0.103209
O             0.037503     -0.399684     -0.116543
O             0.447442      0.409259      0.098380
Fe            0.150206     -0.248427     -0.266542
Fe            0.348969     -0.084629      0.486094
Fe           -0.153195     -0.077240      0.274208
Fe           -0.359899     -0.255528     -0.486766
H            -0.083472     -0.253861     -0.469105
H            -0.427535     -0.077697      0.300734
H             0.086443     -0.050320      0.448565
H             0.444166     -0.222554     -0.273575
O            -0.200177     -0.246596      0.400959
O            -0.303439     -0.082776     -0.356675
O             0.200398     -0.099339     -0.397942
O             0.323440     -0.255170      0.325414
O            -0.052649     -0.255381     -0.369636
O            -0.450968     -0.086838      0.400243
O             0.056054     -0.090924      0.359162
O             0.448215     -0.238303     -0.375575
Fe            0.144831      0.090129     -0.289411
Fe            0.343045      0.266504      0.461962
Fe           -0.153712      0.259925      0.273617
Fe           -0.358768      0.083640     -0.474167
H            -0.071226      0.129106     -0.456594
H            -0.426408      0.263617      0.293264
H             0.079073      0.263837      0.457855
H             0.424527      0.091970     -0.310086
O            -0.204965      0.083225      0.401677
O            -0.310068      0.244462     -0.340747
O             0.186689      0.244455     -0.414261
O             0.299418      0.070982      0.348833
O            -0.048759      0.106969     -0.358016
O            -0.450968      0.241102      0.392204
O             0.047733      0.241916      0.358969
O             0.426781      0.084354     -0.409953
Cu            0.137671      0.413827     -0.263507
H             0.314591     -0.429463     -0.393591
Fe           -0.146492     -0.412319      0.289682
Fe           -0.371952      0.422307     -0.455902
H            -0.053256      0.396315     -0.460456
H            -0.416209     -0.446440      0.309995
H             0.105273     -0.407348      0.450156
H             0.413922      0.406067     -0.282952
O            -0.191017      0.415783      0.410059
O            -0.308233     -0.405964     -0.348535
O             0.218801     -0.425654     -0.390021
O             0.298859      0.418075      0.329217
O            -0.038255      0.411079     -0.356323
O            -0.460718     -0.432636      0.404573
O             0.054191     -0.416289      0.360179
O             0.433602      0.400566     -0.385431
H             0.111124     -0.424110      0.018127
H             0.356647     -0.343212      0.371931
data_nwchem_pspw

_audit_creation_date   Thu Nov 23 01:56:16 2023
_audit_creation_method    generated by PSPW module of NWChem


_cell_length_a            10.0667
_cell_length_b             9.1552
_cell_length_c             9.2041
_cell_angle_alpha         90.0000
_cell_angle_beta          90.0000
_cell_angle_gamma         90.0000

_symmetry_space_group_name_H-M     P1  

loop_
_atom_site_type_symbol
_atom_site_fract_x
_atom_site_fract_y
_atom_site_fract_z
Fe            0.149898     -0.262020      0.251614
Fe            0.357210     -0.092855     -0.025477
Fe           -0.150344     -0.072544     -0.253391
Fe           -0.366214     -0.236939      0.002398
H            -0.102638     -0.220428      0.044218
H            -0.451951     -0.083084     -0.215211
H             0.093519     -0.077695     -0.041665
H             0.398590     -0.273384      0.211100
O            -0.205450     -0.231871     -0.093237
O            -0.305116     -0.073437      0.132188
O             0.200976     -0.113518      0.104708
O             0.309180     -0.264687     -0.150834
O            -0.051640     -0.251858      0.128339
O            -0.461926     -0.074491     -0.112290
O             0.057336     -0.077674     -0.140583
O             0.445171     -0.269313      0.119114
Fe            0.161694      0.075478      0.231895
Fe            0.347349      0.244056     -0.021887
Fe           -0.151233      0.259559     -0.229794
Fe           -0.368955      0.097023      0.019697
H            -0.044151      0.075808      0.038128
H            -0.435920      0.254981     -0.210153
H             0.103386      0.243974     -0.054155
H             0.408795      0.058831      0.209903
O            -0.203032      0.082380     -0.111987
O            -0.306560      0.252357      0.151435
O             0.195994      0.248731      0.098456
O             0.306426      0.085901     -0.150165
O            -0.043477      0.088884      0.141434
O            -0.461128      0.255829     -0.109089
O             0.057290      0.252592     -0.147025
O             0.436691      0.071331      0.108822
Fe            0.142094      0.400822      0.243872
Fe            0.360483     -0.418702     -0.013874
Fe           -0.167413     -0.414665     -0.229412
Fe           -0.352734      0.421616      0.028052
H            -0.107279      0.421034      0.063963
H            -0.426143     -0.430133     -0.208371
H             0.025590     -0.300644     -0.054638
H             0.444670      0.421297      0.216128
O            -0.202569      0.426654     -0.097383
O            -0.289051     -0.420926      0.144694
O             0.192599     -0.426986      0.106303
O             0.313513      0.411589     -0.136236
O            -0.057722      0.410071      0.153310
O            -0.444201     -0.414259     -0.105777
O             0.052843     -0.382803     -0.112174
O             0.444882      0.423469      0.113297
Fe            0.148944     -0.256290     -0.261143
Fe            0.374300     -0.095121      0.489080
Fe           -0.139936     -0.080767      0.258075
Fe           -0.356489     -0.239790      0.491711
H            -0.077480     -0.261401     -0.445183
H            -0.441718     -0.103104      0.270651
H             0.086678     -0.067739      0.462874
H             0.448025     -0.233654     -0.301145
O            -0.196029     -0.241041      0.398385
O            -0.305198     -0.077234     -0.376576
O             0.198232     -0.076470     -0.397085
O             0.308970     -0.277083      0.375235
O            -0.047007     -0.263341     -0.345534
O            -0.451330     -0.080868      0.372397
O             0.063203     -0.081871      0.361602
O             0.465201     -0.245656     -0.402949
Fe            0.149724      0.080549     -0.267800
Fe            0.351143      0.248862      0.482172
Fe           -0.146022      0.251039      0.277896
Fe           -0.349569      0.085867     -0.494536
H            -0.101222      0.110950     -0.466567
H            -0.426718      0.235347      0.296155
H             0.092242      0.224749      0.462104
H             0.415930      0.081773     -0.283463
O            -0.186537      0.079975      0.394724
O            -0.297688      0.255759     -0.364945
O             0.190257      0.219851     -0.399431
O             0.314588      0.061318      0.360961
O            -0.059608      0.093753     -0.369014
O            -0.441108      0.238268      0.398910
O             0.056368      0.232012      0.360344
O             0.457894      0.064825     -0.377717
Cu            0.152534      0.418226     -0.256975
H             0.298604     -0.432632     -0.397723
Fe           -0.146241     -0.410550      0.273027
Fe           -0.359137      0.432678     -0.478226
H            -0.090331      0.426692     -0.445282
H            -0.405077     -0.408139      0.286350
H             0.057389     -0.421266      0.456245
H             0.424577      0.414074     -0.297717
O            -0.204114      0.423837      0.388883
O            -0.310114     -0.398706     -0.365884
O             0.202356     -0.426723     -0.389943
O             0.291340      0.390739      0.355729
O            -0.046051      0.424156     -0.352787
O            -0.444773     -0.411745      0.382514
O             0.052180     -0.423583      0.352253
O             0.448194      0.404378     -0.399281
H             0.126283     -0.431270      0.022999
H             0.361663     -0.365726      0.383366
data_nwchem_pspw

_audit_creation_date   Thu Nov 23 04:12:43 2023
_audit_creation_method    generated by PSPW module of NWChem


_cell_length_a            10.0667
_cell_length_b             9.1552
_cell_length_c             9.2041
_cell_angle_alpha         90.0000
_cell_angle_beta          90.0000
_cell_angle_gamma         90.0000

_symmetry_space_group_name_H-M     P1  

loop_
_atom_site_type_symbol
_atom_site_fract_x
_atom_site_fract_y
_atom_site_fract_z
Fe            0.148466     -0.247023      0.227776
Fe            0.347021     -0.073681     -0.032399
Fe           -0.146649     -0.095288     -0.246798
Fe           -0.352916     -0.251916      0.028389
H            -0.079962     -0.212537      0.059434
H            -0.404816     -0.058597     -0.198817
H             0.081530     -0.072488     -0.058665
H             0.405108     -0.245074      0.190748
O            -0.183446     -0.248002     -0.096289
O            -0.313742     -0.082611      0.147230
O             0.204116     -0.075599      0.095430
O             0.301787     -0.246127     -0.154243
O            -0.052390     -0.245319      0.156201
O            -0.437853     -0.086230     -0.102299
O             0.046942     -0.075244     -0.157197
O             0.438563     -0.239105      0.089455
Fe            0.147848      0.089803      0.222095
Fe            0.353496      0.270559     -0.022129
Fe           -0.142992      0.240448     -0.217905
Fe           -0.348562      0.081588      0.019240
H            -0.079941      0.091236      0.047010
H            -0.405677      0.238766     -0.204582
H             0.107295      0.251985     -0.075057
H             0.410509      0.085015      0.180717
O            -0.183189      0.083787     -0.090117
O            -0.303278      0.239536      0.172527
O             0.182730      0.264520      0.087336
O             0.296708      0.084372     -0.150989
O            -0.063310      0.080910      0.149751
O            -0.435022      0.247834     -0.102207
O             0.064517      0.242635     -0.171908
O             0.447072      0.099069      0.084378
Fe            0.156321      0.412734      0.244320
Fe            0.353260     -0.415864     -0.034422
Fe           -0.149564     -0.424739     -0.221377
Fe           -0.350049      0.402711      0.028826
H            -0.066604      0.395531      0.067551
H            -0.404323     -0.432615     -0.201376
H            -0.000867     -0.311662     -0.075988
H             0.406961      0.422415      0.206257
O            -0.184050      0.415164     -0.100257
O            -0.298758     -0.403666      0.153987
O             0.192646     -0.427024      0.089641
O             0.302214      0.421704     -0.156462
O            -0.049124      0.415690      0.167867
O            -0.435252     -0.432415     -0.100233
O             0.047342     -0.381512     -0.133434
O             0.441136      0.423494      0.103514
Fe            0.142567     -0.250424     -0.275561
Fe            0.353231     -0.066833      0.477779
Fe           -0.159618     -0.075746      0.282033
Fe           -0.382126     -0.262706     -0.484005
H            -0.104001     -0.239938     -0.461325
H            -0.443459     -0.057196      0.298389
H             0.067042     -0.091382      0.450908
H             0.421595     -0.221160     -0.292526
O            -0.204190     -0.258890      0.402945
O            -0.310583     -0.085097     -0.353273
O             0.195664     -0.082906     -0.404536
O             0.317923     -0.256317      0.346116
O            -0.064114     -0.244617     -0.362652
O            -0.449173     -0.075790      0.401002
O             0.043929     -0.071961      0.351007
O             0.433325     -0.226212     -0.396790
Fe            0.145974      0.077689     -0.294491
Fe            0.373947      0.262421      0.477962
Fe           -0.146700      0.262004      0.291062
Fe           -0.350328      0.080929     -0.472137
H            -0.096167      0.065044     -0.455279
H            -0.388671      0.238092      0.301680
H             0.092098      0.233414      0.456283
H             0.412893      0.093236     -0.303865
O            -0.199974      0.080257      0.407338
O            -0.291817      0.247855     -0.336260
O             0.204816      0.224032     -0.421356
O             0.301277      0.078299      0.338341
O            -0.055898      0.064743     -0.359239
O            -0.433653      0.241379      0.399464
O             0.049861      0.250133      0.362025
O             0.445704      0.096511     -0.403362
Cu            0.152602      0.396236     -0.297856
H             0.300915     -0.411274     -0.407752
Fe           -0.149342     -0.419251      0.284822
Fe           -0.359099      0.407658     -0.462891
H            -0.085010      0.421820     -0.450665
H            -0.411518     -0.411379      0.305821
H             0.095324     -0.390537      0.442891
H             0.438027      0.377122     -0.272261
O            -0.203642      0.425187      0.423505
O            -0.306026     -0.424814     -0.348562
O             0.206050     -0.416732     -0.392316
O             0.322085      0.406152      0.348678
O            -0.043441      0.417424     -0.355105
O            -0.458873     -0.426395      0.395914
O             0.066117     -0.428793      0.352594
O             0.454009      0.396375     -0.372991
H             0.124930     -0.421135      0.008348
H             0.358241     -0.348594      0.373689