data_nwchem_pspw

_audit_creation_date   Tue Jun 18 15:58:55 2024
_audit_creation_method    generated by PSPW module of NWChem


_cell_length_a            10.0667
_cell_length_b             9.1552
_cell_length_c             9.2041
_cell_angle_alpha         90.0000
_cell_angle_beta          90.0000
_cell_angle_gamma         90.0000

_symmetry_space_group_name_H-M     P1  

loop_
_atom_site_type_symbol
_atom_site_fract_x
_atom_site_fract_y
_atom_site_fract_z
Fe            0.146735     -0.250000      0.224756
Fe            0.353175     -0.083327     -0.025375
Fe           -0.146825     -0.083327     -0.224625
Fe           -0.353265     -0.250000      0.025244
H            -0.085221     -0.250000      0.049134
H            -0.414737     -0.083030     -0.201101
H             0.085263     -0.083030     -0.048899
H             0.414779     -0.250000      0.200866
O            -0.196748     -0.250000     -0.095276
O            -0.303195     -0.083277      0.154599
O             0.196805     -0.083277      0.095401
O             0.303252     -0.250000     -0.154724
O            -0.053396     -0.250000      0.148894
O            -0.446594     -0.082953     -0.101355
O             0.053406     -0.082954     -0.148645
O             0.446604     -0.250000      0.101106
Fe            0.146825      0.083327      0.224625
Fe            0.353265      0.250000     -0.025244
Fe           -0.146735      0.250000     -0.224756
Fe           -0.353175      0.083327      0.025375
H            -0.085263      0.083030      0.048899
H            -0.414779      0.250000     -0.200866
H             0.085221      0.250000     -0.049134
H             0.414737      0.083030      0.201101
O            -0.196805      0.083277     -0.095401
O            -0.303252      0.250000      0.154724
O             0.196748      0.250000      0.095276
O             0.303195      0.083277     -0.154599
O            -0.053406      0.082954      0.148645
O            -0.446604      0.250000     -0.101106
O             0.053396      0.250000     -0.148894
O             0.446594      0.082953      0.101355
Fe            0.146825      0.416673      0.224625
Fe            0.353175     -0.416673     -0.025375
Fe           -0.146825     -0.416673     -0.224625
Fe           -0.353175      0.416673      0.025375
H            -0.085263      0.416970      0.048899
H            -0.414737     -0.416970     -0.201101
H             0.085263     -0.416970     -0.048899
H             0.414737      0.416970      0.201101
O            -0.196805      0.416723     -0.095401
O            -0.303195     -0.416723      0.154599
O             0.196805     -0.416723      0.095401
O             0.303195      0.416723     -0.154599
O            -0.053406      0.417047      0.148645
O            -0.446594     -0.417047     -0.101355
O             0.053406     -0.417047     -0.148645
O             0.446594      0.417046      0.101355
Fe            0.146735     -0.250000     -0.275244
Fe            0.353175     -0.083327      0.474625
Fe           -0.146825     -0.083327      0.275375
Fe           -0.353265     -0.250000     -0.474756
H            -0.085221     -0.250000     -0.450866
H            -0.414737     -0.083030      0.298899
H             0.085263     -0.083030      0.451101
H             0.414779     -0.250000     -0.299134
O            -0.196748     -0.250000      0.404724
O            -0.303195     -0.083277     -0.345401
O             0.196805     -0.083277     -0.404599
O             0.303252     -0.250000      0.345276
O            -0.053396     -0.250000     -0.351106
O            -0.446594     -0.082953      0.398645
O             0.053406     -0.082954      0.351355
O             0.446604     -0.250000     -0.398894
Fe            0.146825      0.083327     -0.275375
Fe            0.353265      0.250000      0.474756
Fe           -0.146735      0.250000      0.275244
Fe           -0.353175      0.083327     -0.474625
H            -0.085263      0.083030     -0.451101
H            -0.414779      0.250000      0.299134
H             0.085221      0.250000      0.450866
H             0.414737      0.083030     -0.298899
O            -0.196805      0.083277      0.404599
O            -0.303252      0.250000     -0.345276
O             0.196748      0.250000     -0.404724
O             0.303195      0.083277      0.345401
O            -0.053406      0.082954     -0.351355
O            -0.446604      0.250000      0.398894
O             0.053396      0.250000      0.351106
O             0.446594      0.082953     -0.398645
Fe            0.146825      0.416673     -0.275375
Pt            0.353175     -0.416673      0.474625
Fe           -0.146825     -0.416673      0.275375
Fe           -0.353175      0.416673     -0.474625
H            -0.085263      0.416970     -0.451101
H            -0.414737     -0.416970      0.298899
H             0.085263     -0.416970      0.451101
H             0.414737      0.416970     -0.298899
O            -0.196805      0.416723      0.404599
O            -0.303195     -0.416723     -0.345401
O             0.196805     -0.416723     -0.404599
O             0.303195      0.416723      0.345401
O            -0.053406      0.417047     -0.351355
O            -0.446594     -0.417047      0.398645
O             0.053406     -0.417047      0.351355
O             0.446594      0.417046     -0.398645
H             0.451134     -0.207847      0.346694
data_nwchem_pspw

_audit_creation_date   Tue Jun 18 16:05:10 2024
_audit_creation_method    generated by PSPW module of NWChem


_cell_length_a            10.0667
_cell_length_b             9.1552
_cell_length_c             9.2041
_cell_angle_alpha         90.0000
_cell_angle_beta          90.0000
_cell_angle_gamma         90.0000

_symmetry_space_group_name_H-M     P1  

loop_
_atom_site_type_symbol
_atom_site_fract_x
_atom_site_fract_y
_atom_site_fract_z
Fe            0.146735     -0.250000      0.224756
Fe            0.353175     -0.083327     -0.025375
Fe           -0.146825     -0.083327     -0.224625
Fe           -0.353265     -0.250000      0.025244
H            -0.085221     -0.250000      0.049134
H            -0.414737     -0.083030     -0.201101
H             0.085263     -0.083030     -0.048899
H             0.414779     -0.250000      0.200866
O            -0.196748     -0.250000     -0.095276
O            -0.303195     -0.083277      0.154599
O             0.196805     -0.083277      0.095401
O             0.303252     -0.250000     -0.154724
O            -0.053396     -0.250000      0.148894
O            -0.446594     -0.082953     -0.101355
O             0.053406     -0.082954     -0.148645
O             0.446604     -0.250000      0.101106
Fe            0.146825      0.083327      0.224625
Fe            0.353265      0.250000     -0.025244
Fe           -0.146735      0.250000     -0.224756
Fe           -0.353175      0.083327      0.025375
H            -0.085263      0.083030      0.048899
H            -0.414779      0.250000     -0.200866
H             0.085221      0.250000     -0.049134
H             0.414737      0.083030      0.201101
O            -0.196805      0.083277     -0.095401
O            -0.303252      0.250000      0.154724
O             0.196748      0.250000      0.095276
O             0.303195      0.083277     -0.154599
O            -0.053406      0.082954      0.148645
O            -0.446604      0.250000     -0.101106
O             0.053396      0.250000     -0.148894
O             0.446594      0.082953      0.101355
Fe            0.146825      0.416673      0.224625
Fe            0.353175     -0.416673     -0.025375
Fe           -0.146825     -0.416673     -0.224625
Fe           -0.353175      0.416673      0.025375
H            -0.085263      0.416970      0.048899
H            -0.414737     -0.416970     -0.201101
H             0.085263     -0.416970     -0.048899
H             0.414737      0.416970      0.201101
O            -0.196805      0.416723     -0.095401
O            -0.303195     -0.416723      0.154599
O             0.196805     -0.416723      0.095401
O             0.303195      0.416723     -0.154599
O            -0.053406      0.417047      0.148645
O            -0.446594     -0.417047     -0.101355
O             0.053406     -0.417047     -0.148645
O             0.446594      0.417046      0.101355
Fe            0.146735     -0.250000     -0.275244
Fe            0.353175     -0.083327      0.474625
Fe           -0.146825     -0.083327      0.275375
Fe           -0.353265     -0.250000     -0.474756
H            -0.085221     -0.250000     -0.450866
H            -0.414737     -0.083030      0.298899
H             0.085263     -0.083030      0.451101
H             0.414779     -0.250000     -0.299134
O            -0.196748     -0.250000      0.404724
O            -0.303195     -0.083277     -0.345401
O             0.196805     -0.083277     -0.404599
O             0.303252     -0.250000      0.345276
O            -0.053396     -0.250000     -0.351106
O            -0.446594     -0.082953      0.398645
O             0.053406     -0.082954      0.351355
O             0.446604     -0.250000     -0.398894
Fe            0.146825      0.083327     -0.275375
Fe            0.353265      0.250000      0.474756
Fe           -0.146735      0.250000      0.275244
Fe           -0.353175      0.083327     -0.474625
H            -0.085263      0.083030     -0.451101
H            -0.414779      0.250000      0.299134
H             0.085221      0.250000      0.450866
H             0.414737      0.083030     -0.298899
O            -0.196805      0.083277      0.404599
O            -0.303252      0.250000     -0.345276
O             0.196748      0.250000     -0.404724
O             0.303195      0.083277      0.345401
O            -0.053406      0.082954     -0.351355
O            -0.446604      0.250000      0.398894
O             0.053396      0.250000      0.351106
O             0.446594      0.082953     -0.398645
Fe            0.146825      0.416673     -0.275375
Pt            0.353175     -0.416673      0.474625
Fe           -0.146825     -0.416673      0.275375
Fe           -0.353175      0.416673     -0.474625
H            -0.085263      0.416970     -0.451101
H            -0.414737     -0.416970      0.298899
H             0.085263     -0.416970      0.451101
H             0.414737      0.416970     -0.298899
O            -0.196805      0.416723      0.404599
O            -0.303195     -0.416723     -0.345401
O             0.196805     -0.416723     -0.404599
O             0.303195      0.416723      0.345401
O            -0.053406      0.417047     -0.351355
O            -0.446594     -0.417047      0.398645
O             0.053406     -0.417047      0.351355
O             0.446594      0.417046     -0.398645
H             0.451134     -0.207847      0.346694
data_nwchem_pspw

_audit_creation_date   Tue Jun 18 16:07:29 2024
_audit_creation_method    generated by PSPW module of NWChem


_cell_length_a            10.0667
_cell_length_b             9.1552
_cell_length_c             9.2041
_cell_angle_alpha         90.0000
_cell_angle_beta          90.0000
_cell_angle_gamma         90.0000

_symmetry_space_group_name_H-M     P1  

loop_
_atom_site_type_symbol
_atom_site_fract_x
_atom_site_fract_y
_atom_site_fract_z
Fe            0.146735     -0.250000      0.224756
Fe            0.353175     -0.083327     -0.025375
Fe           -0.146825     -0.083327     -0.224625
Fe           -0.353265     -0.250000      0.025244
H            -0.085221     -0.250000      0.049134
H            -0.414737     -0.083030     -0.201101
H             0.085263     -0.083030     -0.048899
H             0.414779     -0.250000      0.200866
O            -0.196748     -0.250000     -0.095276
O            -0.303195     -0.083277      0.154599
O             0.196805     -0.083277      0.095401
O             0.303252     -0.250000     -0.154724
O            -0.053396     -0.250000      0.148894
O            -0.446594     -0.082953     -0.101355
O             0.053406     -0.082954     -0.148645
O             0.446604     -0.250000      0.101106
Fe            0.146825      0.083327      0.224625
Fe            0.353265      0.250000     -0.025244
Fe           -0.146735      0.250000     -0.224756
Fe           -0.353175      0.083327      0.025375
H            -0.085263      0.083030      0.048899
H            -0.414779      0.250000     -0.200866
H             0.085221      0.250000     -0.049134
H             0.414737      0.083030      0.201101
O            -0.196805      0.083277     -0.095401
O            -0.303252      0.250000      0.154724
O             0.196748      0.250000      0.095276
O             0.303195      0.083277     -0.154599
O            -0.053406      0.082954      0.148645
O            -0.446604      0.250000     -0.101106
O             0.053396      0.250000     -0.148894
O             0.446594      0.082953      0.101355
Fe            0.146825      0.416673      0.224625
Fe            0.353175     -0.416673     -0.025375
Fe           -0.146825     -0.416673     -0.224625
Fe           -0.353175      0.416673      0.025375
H            -0.085263      0.416970      0.048899
H            -0.414737     -0.416970     -0.201101
H             0.085263     -0.416970     -0.048899
H             0.414737      0.416970      0.201101
O            -0.196805      0.416723     -0.095401
O            -0.303195     -0.416723      0.154599
O             0.196805     -0.416723      0.095401
O             0.303195      0.416723     -0.154599
O            -0.053406      0.417047      0.148645
O            -0.446594     -0.417047     -0.101355
O             0.053406     -0.417047     -0.148645
O             0.446594      0.417046      0.101355
Fe            0.146735     -0.250000     -0.275244
Fe            0.353175     -0.083327      0.474625
Fe           -0.146825     -0.083327      0.275375
Fe           -0.353265     -0.250000     -0.474756
H            -0.085221     -0.250000     -0.450866
H            -0.414737     -0.083030      0.298899
H             0.085263     -0.083030      0.451101
H             0.414779     -0.250000     -0.299134
O            -0.196748     -0.250000      0.404724
O            -0.303195     -0.083277     -0.345401
O             0.196805     -0.083277     -0.404599
O             0.303252     -0.250000      0.345276
O            -0.053396     -0.250000     -0.351106
O            -0.446594     -0.082953      0.398645
O             0.053406     -0.082954      0.351355
O             0.446604     -0.250000     -0.398894
Fe            0.146825      0.083327     -0.275375
Fe            0.353265      0.250000      0.474756
Fe           -0.146735      0.250000      0.275244
Fe           -0.353175      0.083327     -0.474625
H            -0.085263      0.083030     -0.451101
H            -0.414779      0.250000      0.299134
H             0.085221      0.250000      0.450866
H             0.414737      0.083030     -0.298899
O            -0.196805      0.083277      0.404599
O            -0.303252      0.250000     -0.345276
O             0.196748      0.250000     -0.404724
O             0.303195      0.083277      0.345401
O            -0.053406      0.082954     -0.351355
O            -0.446604      0.250000      0.398894
O             0.053396      0.250000      0.351106
O             0.446594      0.082953     -0.398645
Fe            0.146825      0.416673     -0.275375
Pt            0.353175     -0.416673      0.474625
Fe           -0.146825     -0.416673      0.275375
Fe           -0.353175      0.416673     -0.474625
H            -0.085263      0.416970     -0.451101
H            -0.414737     -0.416970      0.298899
H             0.085263     -0.416970      0.451101
H             0.414737      0.416970     -0.298899
O            -0.196805      0.416723      0.404599
O            -0.303195     -0.416723     -0.345401
O             0.196805     -0.416723     -0.404599
O             0.303195      0.416723      0.345401
O            -0.053406      0.417047     -0.351355
O            -0.446594     -0.417047      0.398645
O             0.053406     -0.417047      0.351355
O             0.446594      0.417046     -0.398645
H             0.451134     -0.207847      0.346694
data_nwchem_pspw

_audit_creation_date   Tue Jun 18 16:08:56 2024
_audit_creation_method    generated by PSPW module of NWChem


_cell_length_a            10.0667
_cell_length_b             9.1552
_cell_length_c             9.2041
_cell_angle_alpha         90.0000
_cell_angle_beta          90.0000
_cell_angle_gamma         90.0000

_symmetry_space_group_name_H-M     P1  

loop_
_atom_site_type_symbol
_atom_site_fract_x
_atom_site_fract_y
_atom_site_fract_z
Fe            0.146735     -0.250000      0.224756
Fe            0.353175     -0.083327     -0.025375
Fe           -0.146825     -0.083327     -0.224625
Fe           -0.353265     -0.250000      0.025244
H            -0.085221     -0.250000      0.049134
H            -0.414737     -0.083030     -0.201101
H             0.085263     -0.083030     -0.048899
H             0.414779     -0.250000      0.200866
O            -0.196748     -0.250000     -0.095276
O            -0.303195     -0.083277      0.154599
O             0.196805     -0.083277      0.095401
O             0.303252     -0.250000     -0.154724
O            -0.053396     -0.250000      0.148894
O            -0.446594     -0.082953     -0.101355
O             0.053406     -0.082954     -0.148645
O             0.446604     -0.250000      0.101106
Fe            0.146825      0.083327      0.224625
Fe            0.353265      0.250000     -0.025244
Fe           -0.146735      0.250000     -0.224756
Fe           -0.353175      0.083327      0.025375
H            -0.085263      0.083030      0.048899
H            -0.414779      0.250000     -0.200866
H             0.085221      0.250000     -0.049134
H             0.414737      0.083030      0.201101
O            -0.196805      0.083277     -0.095401
O            -0.303252      0.250000      0.154724
O             0.196748      0.250000      0.095276
O             0.303195      0.083277     -0.154599
O            -0.053406      0.082954      0.148645
O            -0.446604      0.250000     -0.101106
O             0.053396      0.250000     -0.148894
O             0.446594      0.082953      0.101355
Fe            0.146825      0.416673      0.224625
Fe            0.353175     -0.416673     -0.025375
Fe           -0.146825     -0.416673     -0.224625
Fe           -0.353175      0.416673      0.025375
H            -0.085263      0.416970      0.048899
H            -0.414737     -0.416970     -0.201101
H             0.085263     -0.416970     -0.048899
H             0.414737      0.416970      0.201101
O            -0.196805      0.416723     -0.095401
O            -0.303195     -0.416723      0.154599
O             0.196805     -0.416723      0.095401
O             0.303195      0.416723     -0.154599
O            -0.053406      0.417047      0.148645
O            -0.446594     -0.417047     -0.101355
O             0.053406     -0.417047     -0.148645
O             0.446594      0.417046      0.101355
Fe            0.146735     -0.250000     -0.275244
Fe            0.353175     -0.083327      0.474625
Fe           -0.146825     -0.083327      0.275375
Fe           -0.353265     -0.250000     -0.474756
H            -0.085221     -0.250000     -0.450866
H            -0.414737     -0.083030      0.298899
H             0.085263     -0.083030      0.451101
H             0.414779     -0.250000     -0.299134
O            -0.196748     -0.250000      0.404724
O            -0.303195     -0.083277     -0.345401
O             0.196805     -0.083277     -0.404599
O             0.303252     -0.250000      0.345276
O            -0.053396     -0.250000     -0.351106
O            -0.446594     -0.082953      0.398645
O             0.053406     -0.082954      0.351355
O             0.446604     -0.250000     -0.398894
Fe            0.146825      0.083327     -0.275375
Fe            0.353265      0.250000      0.474756
Fe           -0.146735      0.250000      0.275244
Fe           -0.353175      0.083327     -0.474625
H            -0.085263      0.083030     -0.451101
H            -0.414779      0.250000      0.299134
H             0.085221      0.250000      0.450866
H             0.414737      0.083030     -0.298899
O            -0.196805      0.083277      0.404599
O            -0.303252      0.250000     -0.345276
O             0.196748      0.250000     -0.404724
O             0.303195      0.083277      0.345401
O            -0.053406      0.082954     -0.351355
O            -0.446604      0.250000      0.398894
O             0.053396      0.250000      0.351106
O             0.446594      0.082953     -0.398645
Fe            0.146825      0.416673     -0.275375
Pt            0.353175     -0.416673      0.474625
Fe           -0.146825     -0.416673      0.275375
Fe           -0.353175      0.416673     -0.474625
H            -0.085263      0.416970     -0.451101
H            -0.414737     -0.416970      0.298899
H             0.085263     -0.416970      0.451101
H             0.414737      0.416970     -0.298899
O            -0.196805      0.416723      0.404599
O            -0.303195     -0.416723     -0.345401
O             0.196805     -0.416723     -0.404599
O             0.303195      0.416723      0.345401
O            -0.053406      0.417047     -0.351355
O            -0.446594     -0.417047      0.398645
O             0.053406     -0.417047      0.351355
O             0.446594      0.417046     -0.398645
H             0.451134     -0.207847      0.346694
data_nwchem_pspw

_audit_creation_date   Tue Jun 18 16:42:37 2024
_audit_creation_method    generated by PSPW module of NWChem


_cell_length_a            10.0667
_cell_length_b             9.1552
_cell_length_c             9.2041
_cell_angle_alpha         90.0000
_cell_angle_beta          90.0000
_cell_angle_gamma         90.0000

_symmetry_space_group_name_H-M     P1  

loop_
_atom_site_type_symbol
_atom_site_fract_x
_atom_site_fract_y
_atom_site_fract_z
Fe            0.146735     -0.250000      0.224756
Fe            0.353175     -0.083327     -0.025375
Fe           -0.146825     -0.083327     -0.224625
Fe           -0.353265     -0.250000      0.025244
H            -0.085221     -0.250000      0.049134
H            -0.414737     -0.083030     -0.201101
H             0.085263     -0.083030     -0.048899
H             0.414779     -0.250000      0.200866
O            -0.196748     -0.250000     -0.095276
O            -0.303195     -0.083277      0.154599
O             0.196805     -0.083277      0.095401
O             0.303252     -0.250000     -0.154724
O            -0.053396     -0.250000      0.148894
O            -0.446594     -0.082953     -0.101355
O             0.053406     -0.082954     -0.148645
O             0.446604     -0.250000      0.101106
Fe            0.146825      0.083327      0.224625
Fe            0.353265      0.250000     -0.025244
Fe           -0.146735      0.250000     -0.224756
Fe           -0.353175      0.083327      0.025375
H            -0.085263      0.083030      0.048899
H            -0.414779      0.250000     -0.200866
H             0.085221      0.250000     -0.049134
H             0.414737      0.083030      0.201101
O            -0.196805      0.083277     -0.095401
O            -0.303252      0.250000      0.154724
O             0.196748      0.250000      0.095276
O             0.303195      0.083277     -0.154599
O            -0.053406      0.082954      0.148645
O            -0.446604      0.250000     -0.101106
O             0.053396      0.250000     -0.148894
O             0.446594      0.082953      0.101355
Fe            0.146825      0.416673      0.224625
Fe            0.353175     -0.416673     -0.025375
Fe           -0.146825     -0.416673     -0.224625
Fe           -0.353175      0.416673      0.025375
H            -0.085263      0.416970      0.048899
H            -0.414737     -0.416970     -0.201101
H             0.085263     -0.416970     -0.048899
H             0.414737      0.416970      0.201101
O            -0.196805      0.416723     -0.095401
O            -0.303195     -0.416723      0.154599
O             0.196805     -0.416723      0.095401
O             0.303195      0.416723     -0.154599
O            -0.053406      0.417047      0.148645
O            -0.446594     -0.417047     -0.101355
O             0.053406     -0.417047     -0.148645
O             0.446594      0.417046      0.101355
Fe            0.146735     -0.250000     -0.275244
Fe            0.353175     -0.083327      0.474625
Fe           -0.146825     -0.083327      0.275375
Fe           -0.353265     -0.250000     -0.474756
H            -0.085221     -0.250000     -0.450866
H            -0.414737     -0.083030      0.298899
H             0.085263     -0.083030      0.451101
H             0.414779     -0.250000     -0.299134
O            -0.196748     -0.250000      0.404724
O            -0.303195     -0.083277     -0.345401
O             0.196805     -0.083277     -0.404599
O             0.303252     -0.250000      0.345276
O            -0.053396     -0.250000     -0.351106
O            -0.446594     -0.082953      0.398645
O             0.053406     -0.082954      0.351355
O             0.446604     -0.250000     -0.398894
Fe            0.146825      0.083327     -0.275375
Fe            0.353265      0.250000      0.474756
Fe           -0.146735      0.250000      0.275244
Fe           -0.353175      0.083327     -0.474625
H            -0.085263      0.083030     -0.451101
H            -0.414779      0.250000      0.299134
H             0.085221      0.250000      0.450866
H             0.414737      0.083030     -0.298899
O            -0.196805      0.083277      0.404599
O            -0.303252      0.250000     -0.345276
O             0.196748      0.250000     -0.404724
O             0.303195      0.083277      0.345401
O            -0.053406      0.082954     -0.351355
O            -0.446604      0.250000      0.398894
O             0.053396      0.250000      0.351106
O             0.446594      0.082953     -0.398645
Fe            0.146825      0.416673     -0.275375
Pt            0.353175     -0.416673      0.474625
Fe           -0.146825     -0.416673      0.275375
Fe           -0.353175      0.416673     -0.474625
H            -0.085263      0.416970     -0.451101
H            -0.414737     -0.416970      0.298899
H             0.085263     -0.416970      0.451101
H             0.414737      0.416970     -0.298899
O            -0.196805      0.416723      0.404599
O            -0.303195     -0.416723     -0.345401
O             0.196805     -0.416723     -0.404599
O             0.303195      0.416723      0.345401
O            -0.053406      0.417047     -0.351355
O            -0.446594     -0.417047      0.398645
O             0.053406     -0.417047      0.351355
O             0.446594      0.417046     -0.398645
H             0.451134     -0.207847      0.346694
data_nwchem_pspw

_audit_creation_date   Tue Jun 18 19:35:06 2024
_audit_creation_method    generated by PSPW module of NWChem


_cell_length_a            10.0667
_cell_length_b             9.1552
_cell_length_c             9.2041
_cell_angle_alpha         90.0000
_cell_angle_beta          90.0000
_cell_angle_gamma         90.0000

_symmetry_space_group_name_H-M     P1  

loop_
_atom_site_type_symbol
_atom_site_fract_x
_atom_site_fract_y
_atom_site_fract_z
Fe            0.130159     -0.246880      0.212672
Fe            0.346833     -0.077051     -0.029766
Fe           -0.136054     -0.080493     -0.218039
Fe           -0.365024     -0.251133      0.034333
H            -0.096198     -0.241260      0.048339
H            -0.400708     -0.103510     -0.184851
H             0.099316     -0.058539     -0.049427
H             0.397634     -0.273531      0.187108
O            -0.185312     -0.243205     -0.084905
O            -0.304963     -0.071815      0.153441
O             0.191373     -0.071590      0.097117
O             0.294499     -0.252506     -0.152728
O            -0.051544     -0.250989      0.146547
O            -0.446944     -0.083007     -0.096250
O             0.061592     -0.074835     -0.146507
O             0.437282     -0.255293      0.097143
Fe            0.144098      0.085199      0.230129
Fe            0.353580      0.250719     -0.030015
Fe           -0.140103      0.246939     -0.196497
Fe           -0.359096      0.092944      0.013135
H            -0.090297      0.078687      0.052024
H            -0.412952      0.267106     -0.197961
H             0.103662      0.255820     -0.051754
H             0.409647      0.087963      0.196973
O            -0.192512      0.087798     -0.082040
O            -0.313244      0.249022      0.160328
O             0.187105      0.244781      0.102147
O             0.300732      0.080167     -0.156288
O            -0.059044      0.079854      0.152485
O            -0.445142      0.243173     -0.101168
O             0.062981      0.261081     -0.149710
O             0.441937      0.087802      0.101609
Fe            0.134184      0.422537      0.223161
Fe            0.345252     -0.422664     -0.036791
Fe           -0.142056     -0.418978     -0.218960
Fe           -0.358455      0.428835      0.046445
H            -0.096071      0.397483      0.054039
H            -0.412145     -0.429141     -0.212105
H             0.072108     -0.420912     -0.049212
H             0.379156      0.408194      0.193617
O            -0.192649      0.406414     -0.085960
O            -0.315590     -0.421005      0.167908
O             0.177723     -0.414433      0.087335
O             0.309564      0.418522     -0.165470
O            -0.066598      0.413348      0.156513
O            -0.453249     -0.437670     -0.118627
O             0.050407     -0.422910     -0.155436
O             0.437169      0.413125      0.100753
Fe            0.147159     -0.250094     -0.278999
Fe            0.352064     -0.079943      0.463005
Fe           -0.139601     -0.090383      0.290812
Fe           -0.341928     -0.250004     -0.473202
H            -0.077604     -0.262692     -0.440435
H            -0.368802     -0.076649      0.235511
H             0.063020     -0.076177      0.466498
H             0.406168     -0.243294     -0.299286
O            -0.189432     -0.260059      0.410519
O            -0.296019     -0.080730     -0.341683
O             0.206129     -0.082931     -0.401532
O             0.294412     -0.249382      0.324023
O            -0.043241     -0.246631     -0.344354
O            -0.450502     -0.097848      0.375816
O             0.053349     -0.085866      0.363377
O             0.448954     -0.246092     -0.394096
Fe            0.149980      0.084811     -0.279532
Fe            0.360545      0.238655      0.468370
Fe           -0.158591      0.246256      0.276846
Fe           -0.352752      0.093098     -0.457488
H            -0.084853      0.084153     -0.443649
H            -0.411237      0.251413      0.302813
H             0.064253      0.249085      0.455982
H             0.425394      0.095769     -0.307090
O            -0.195014      0.076341      0.409946
O            -0.286962      0.262955     -0.341668
O             0.214345      0.241606     -0.397909
O             0.308490      0.075308      0.330854
O            -0.039472      0.083267     -0.350084
O            -0.439060      0.241886      0.405452
O             0.047660      0.240291      0.352529
O             0.454953      0.085951     -0.406884
Fe            0.137509      0.419619     -0.283093
Pt            0.360449     -0.414966      0.464937
Fe           -0.149611     -0.420333      0.285105
Fe           -0.348260      0.415120     -0.478405
H            -0.095772      0.417011     -0.451915
H            -0.400317     -0.419900      0.292481
H             0.086443     -0.413216      0.451878
H             0.399845      0.426894     -0.310003
O            -0.190527      0.419216      0.414290
O            -0.295487     -0.411308     -0.345112
O             0.193665     -0.430841     -0.405009
O             0.303488      0.405267      0.326647
O            -0.057788      0.428648     -0.357829
O            -0.434319     -0.426586      0.392169
O             0.062065     -0.430454      0.350540
O             0.441802      0.408604     -0.403032
H            -0.479415     -0.188912      0.331316
data_nwchem_pspw

_audit_creation_date   Tue Jun 18 22:15:51 2024
_audit_creation_method    generated by PSPW module of NWChem


_cell_length_a            10.0667
_cell_length_b             9.1552
_cell_length_c             9.2041
_cell_angle_alpha         90.0000
_cell_angle_beta          90.0000
_cell_angle_gamma         90.0000

_symmetry_space_group_name_H-M     P1  

loop_
_atom_site_type_symbol
_atom_site_fract_x
_atom_site_fract_y
_atom_site_fract_z
Fe            0.134197     -0.247735      0.217627
Fe            0.348624     -0.086590     -0.030710
Fe           -0.138361     -0.076812     -0.215396
Fe           -0.367576     -0.250441      0.009728
H            -0.102210     -0.260476      0.041273
H            -0.408167     -0.061913     -0.210318
H             0.077512     -0.062222     -0.031018
H             0.392295     -0.243167      0.208681
O            -0.193069     -0.237803     -0.100499
O            -0.298849     -0.077459      0.144607
O             0.190577     -0.076353      0.094250
O             0.299009     -0.246999     -0.161391
O            -0.050171     -0.245106      0.135379
O            -0.450826     -0.073523     -0.115661
O             0.053754     -0.073322     -0.131832
O             0.439111     -0.245009      0.110347
Fe            0.149205      0.092590      0.235761
Fe            0.353283      0.261056     -0.036576
Fe           -0.140373      0.251872     -0.211489
Fe           -0.362919      0.092815      0.022739
H            -0.079542      0.088368      0.055417
H            -0.400998      0.233883     -0.209729
H             0.090160      0.243180     -0.033406
H             0.413423      0.085367      0.194091
O            -0.188346      0.086814     -0.073936
O            -0.311195      0.260707      0.154064
O             0.190604      0.251689      0.098104
O             0.310593      0.087651     -0.156858
O            -0.045892      0.095570      0.151789
O            -0.444084      0.252318     -0.117227
O             0.046533      0.249654     -0.132488
O             0.439591      0.094276      0.094207
Fe            0.142948      0.409211      0.227814
Fe            0.349162     -0.409604     -0.037147
Fe           -0.150207     -0.408224     -0.209420
Fe           -0.361298      0.424032      0.019052
H            -0.100531      0.411351      0.056210
H            -0.395733     -0.396748     -0.216264
H             0.082896     -0.394144     -0.035983
H             0.418854      0.414342      0.187680
O            -0.196422      0.412103     -0.088248
O            -0.320096     -0.418889      0.153566
O             0.179608     -0.409348      0.092963
O             0.300324      0.414889     -0.159154
O            -0.053918      0.417998      0.150290
O            -0.443067     -0.414735     -0.120659
O             0.045608     -0.408577     -0.137919
O             0.442666      0.418162      0.088427
Fe            0.136322     -0.246531     -0.275346
Fe            0.340631     -0.080978      0.481169
Fe           -0.126645     -0.089780      0.275592
Fe           -0.343279     -0.257510     -0.490836
H            -0.109356     -0.258489     -0.449558
H            -0.350968     -0.072413      0.238303
H             0.113282     -0.091545      0.453725
H             0.422694     -0.240320     -0.309861
O            -0.190459     -0.257164      0.389817
O            -0.289417     -0.091529     -0.355188
O             0.183960     -0.069125     -0.400995
O             0.312885     -0.232469      0.328804
O            -0.060401     -0.254435     -0.363125
O            -0.439696     -0.086654      0.389147
O             0.071724     -0.083718      0.356446
O             0.455422     -0.239573     -0.409085
Fe            0.141021      0.090702     -0.261428
Fe            0.360960      0.247501      0.480487
Fe           -0.147358      0.249450      0.273776
Fe           -0.355480      0.076502     -0.479718
H            -0.082918      0.085688     -0.447071
H            -0.423898      0.258477      0.288059
H             0.098211      0.235751      0.465560
H             0.410967      0.071632     -0.292128
O            -0.200413      0.072858      0.399100
O            -0.306518      0.254036     -0.361044
O             0.190375      0.249734     -0.398305
O             0.321710      0.087538      0.339881
O            -0.059753      0.093183     -0.343193
O            -0.446108      0.247945      0.392980
O             0.052343      0.242664      0.369392
O             0.442659      0.081642     -0.396617
Fe            0.125461      0.415175     -0.263735
Pt            0.364649     -0.427678      0.479541
Fe           -0.149553     -0.420093      0.266613
Fe           -0.345159      0.406340     -0.473851
H            -0.072492      0.407724     -0.443248
H            -0.395426     -0.427300      0.282062
H             0.099437     -0.432770      0.458125
H             0.407879      0.404279     -0.291981
O            -0.190214      0.418785      0.408423
O            -0.296713     -0.420309     -0.341554
O             0.193579     -0.426943     -0.386899
O             0.306338      0.392944      0.337919
O            -0.054563      0.402087     -0.340162
O            -0.432262     -0.434784      0.391106
O             0.066619     -0.430489      0.356104
O             0.454028      0.398663     -0.383145
H             0.498443     -0.105102      0.312027
data_nwchem_pspw

_audit_creation_date   Wed Jun 19 00:11:59 2024
_audit_creation_method    generated by PSPW module of NWChem


_cell_length_a            10.0667
_cell_length_b             9.1552
_cell_length_c             9.2041
_cell_angle_alpha         90.0000
_cell_angle_beta          90.0000
_cell_angle_gamma         90.0000

_symmetry_space_group_name_H-M     P1  

loop_
_atom_site_type_symbol
_atom_site_fract_x
_atom_site_fract_y
_atom_site_fract_z
Fe            0.147822     -0.247243      0.213258
Fe            0.356049     -0.083665     -0.042245
Fe           -0.156687     -0.080266     -0.217019
Fe           -0.355474     -0.263491      0.027254
H            -0.082297     -0.260736      0.044318
H            -0.421552     -0.080443     -0.198501
H             0.089095     -0.067780     -0.047401
H             0.389921     -0.253570      0.187559
O            -0.191538     -0.249530     -0.078436
O            -0.308144     -0.084309      0.135150
O             0.209136     -0.076674      0.090028
O             0.300072     -0.249714     -0.170933
O            -0.050288     -0.255563      0.144955
O            -0.444183     -0.080491     -0.098757
O             0.064465     -0.070782     -0.147664
O             0.449084     -0.261440      0.098048
Fe            0.154792      0.088379      0.219477
Fe            0.350787      0.245060     -0.023822
Fe           -0.141794      0.246957     -0.218199
Fe           -0.356579      0.095314      0.026294
H            -0.078549      0.076658      0.044701
H            -0.404306      0.255773     -0.202034
H             0.104485      0.244175     -0.056320
H             0.427187      0.067285      0.201976
O            -0.185766      0.081420     -0.088032
O            -0.312664      0.253664      0.171052
O             0.180993      0.245758      0.083545
O             0.305339      0.087328     -0.165193
O            -0.042669      0.080058      0.148669
O            -0.448336      0.259934     -0.095928
O             0.063994      0.249210     -0.152816
O             0.456996      0.076928      0.100509
Fe            0.140167      0.414526      0.210476
Fe            0.361430     -0.414078     -0.027044
Fe           -0.143817     -0.418678     -0.205272
Fe           -0.357230      0.408347      0.036243
H            -0.101666      0.398721      0.048659
H            -0.413144     -0.444136     -0.202515
H             0.095615     -0.429268     -0.051084
H             0.400491      0.404032      0.203189
O            -0.185062      0.395589     -0.077892
O            -0.304577     -0.416903      0.159985
O             0.194352     -0.415121      0.094580
O             0.304097      0.406011     -0.165425
O            -0.063120      0.408255      0.148022
O            -0.445156     -0.415670     -0.111582
O             0.061236     -0.410258     -0.147728
O             0.447040      0.420161      0.102356
Fe            0.122441     -0.244773     -0.281687
Fe            0.358487     -0.074689      0.471311
Fe           -0.141871     -0.083783      0.273742
Fe           -0.367533     -0.256744     -0.472510
H            -0.110366     -0.259956     -0.443900
H            -0.367249     -0.072995      0.228946
H             0.082157     -0.087895      0.439611
H             0.401998     -0.252744     -0.300111
O            -0.198230     -0.255168      0.405764
O            -0.312373     -0.088280     -0.328099
O             0.185417     -0.071630     -0.410710
O             0.303749     -0.225307      0.332701
O            -0.063401     -0.253861     -0.343591
O            -0.435828     -0.102476      0.367219
O             0.060517     -0.083220      0.342761
O             0.444891     -0.236993     -0.397927
Fe            0.147805      0.093078     -0.300301
Fe            0.367451      0.252562      0.477315
Fe           -0.141653      0.249790      0.289895
Fe           -0.354575      0.074473     -0.456328
H            -0.089148      0.071634     -0.458566
H            -0.396206      0.258922      0.312262
H             0.116072      0.242863      0.453774
H             0.418190      0.062397     -0.293139
O            -0.203434      0.079958      0.415457
O            -0.304979      0.252419     -0.322596
O             0.189922      0.255487     -0.423925
O             0.310698      0.090489      0.341740
O            -0.056950      0.068165     -0.357195
O            -0.437178      0.245403      0.411128
O             0.065576      0.249285      0.356065
O             0.443313      0.081936     -0.392751
Fe            0.142609      0.415362     -0.282423
Pt            0.351686     -0.409393      0.473610
Fe           -0.145831     -0.419016      0.283315
Fe           -0.356486      0.416130     -0.460654
H            -0.092731      0.412411     -0.444779
H            -0.400881     -0.405075      0.294555
H             0.095753     -0.416155      0.450272
H             0.414969      0.422976     -0.291875
O            -0.193246      0.407810      0.418132
O            -0.305006     -0.429546     -0.325376
O             0.177931     -0.408460     -0.415986
O             0.326071      0.391453      0.326908
O            -0.058358      0.412232     -0.345758
O            -0.448113     -0.421292      0.387899
O             0.064015     -0.415677      0.348205
O             0.446777      0.411577     -0.394303
H            -0.476180     -0.174740      0.308684
data_nwchem_pspw

_audit_creation_date   Wed Jun 19 02:12:05 2024
_audit_creation_method    generated by PSPW module of NWChem


_cell_length_a            10.0667
_cell_length_b             9.1552
_cell_length_c             9.2041
_cell_angle_alpha         90.0000
_cell_angle_beta          90.0000
_cell_angle_gamma         90.0000

_symmetry_space_group_name_H-M     P1  

loop_
_atom_site_type_symbol
_atom_site_fract_x
_atom_site_fract_y
_atom_site_fract_z
Fe            0.137709     -0.255963      0.223694
Fe            0.348088     -0.076276     -0.022650
Fe           -0.139019     -0.079610     -0.233307
Fe           -0.365620     -0.246719      0.016659
H            -0.077646     -0.236724      0.050869
H            -0.401577     -0.071228     -0.207491
H             0.097124     -0.064688     -0.044059
H             0.395723     -0.243968      0.198955
O            -0.202946     -0.237219     -0.111920
O            -0.309745     -0.078035      0.155315
O             0.183377     -0.084272      0.093340
O             0.310476     -0.258674     -0.145948
O            -0.057728     -0.247345      0.150780
O            -0.437889     -0.077051     -0.109081
O             0.054904     -0.088457     -0.139977
O             0.444111     -0.232514      0.102132
Fe            0.142236      0.083563      0.213435
Fe            0.353116      0.244848     -0.035986
Fe           -0.142630      0.260612     -0.226659
Fe           -0.357376      0.092100      0.009709
H            -0.100110      0.081527      0.040529
H            -0.384178      0.257548     -0.205164
H             0.083213      0.253078     -0.046329
H             0.416391      0.079734      0.192962
O            -0.195713      0.089988     -0.100752
O            -0.314417      0.252240      0.161110
O             0.192730      0.254168      0.078306
O             0.307330      0.073531     -0.165599
O            -0.067600      0.084524      0.142482
O            -0.423251      0.258234     -0.105649
O             0.054511      0.247249     -0.150084
O             0.448837      0.095012      0.090632
Fe            0.141825      0.413680      0.212301
Fe            0.353752     -0.426508     -0.020881
Fe           -0.139217     -0.413539     -0.214603
Fe           -0.348109      0.419412      0.036739
H            -0.096931      0.416547      0.046692
H            -0.404224     -0.425312     -0.197658
H             0.081358     -0.409346     -0.043580
H             0.406218      0.403461      0.213139
O            -0.186369      0.422946     -0.076593
O            -0.315318     -0.409026      0.159993
O             0.194167     -0.408987      0.095874
O             0.318453      0.421601     -0.158061
O            -0.054521      0.419584      0.153260
O            -0.446704     -0.423593     -0.096588
O             0.051761     -0.424294     -0.138881
O             0.447430      0.400839      0.114090
Fe            0.149751     -0.241216     -0.259030
Fe            0.350853     -0.090551      0.469190
Fe           -0.138529     -0.080052      0.287019
Fe           -0.347783     -0.247791     -0.459288
H            -0.098155     -0.259374     -0.453668
H            -0.371190     -0.054787      0.239805
H             0.087178     -0.088374      0.449426
H             0.406542     -0.247373     -0.301868
O            -0.188413     -0.243404      0.413538
O            -0.304811     -0.083810     -0.349403
O             0.194521     -0.091859     -0.407231
O             0.305863     -0.248843      0.328202
O            -0.049061     -0.239813     -0.358569
O            -0.453416     -0.111248      0.390254
O             0.066933     -0.094522      0.348968
O             0.443595     -0.246563     -0.398703
Fe            0.145730      0.081248     -0.290375
Fe            0.367405      0.244290      0.465561
Fe           -0.156403      0.255740      0.277625
Fe           -0.339761      0.085247     -0.470906
H            -0.079081      0.101846     -0.454352
H            -0.413484      0.263543      0.296171
H             0.093138      0.244136      0.443877
H             0.414393      0.076204     -0.314481
O            -0.181825      0.087213      0.405127
O            -0.306125      0.253906     -0.336767
O             0.207274      0.248993     -0.403437
O             0.302459      0.084163      0.330744
O            -0.048060      0.090824     -0.354267
O            -0.436222      0.249242      0.399208
O             0.050554      0.238649      0.348732
O             0.449496      0.072616     -0.410562
Fe            0.139120      0.407423     -0.267267
Pt            0.348945     -0.424350      0.480459
Fe           -0.150283     -0.409632      0.271965
Fe           -0.353104      0.423393     -0.465096
H            -0.093471      0.410011     -0.450307
H            -0.399805     -0.413634      0.293461
H             0.053149     -0.435224      0.449347
H             0.419376      0.416513     -0.288544
O            -0.196061      0.421793      0.410450
O            -0.310600     -0.418144     -0.339952
O             0.185554     -0.415001     -0.381766
O             0.299888      0.392392      0.334914
O            -0.058856      0.421745     -0.352292
O            -0.435666     -0.400295      0.396028
O             0.041653     -0.433446      0.346477
O             0.447751      0.405964     -0.390649
H            -0.486711     -0.197410      0.342820
data_nwchem_pspw

_audit_creation_date   Wed Jun 19 04:11:07 2024
_audit_creation_method    generated by PSPW module of NWChem


_cell_length_a            10.0667
_cell_length_b             9.1552
_cell_length_c             9.2041
_cell_angle_alpha         90.0000
_cell_angle_beta          90.0000
_cell_angle_gamma         90.0000

_symmetry_space_group_name_H-M     P1  

loop_
_atom_site_type_symbol
_atom_site_fract_x
_atom_site_fract_y
_atom_site_fract_z
Fe            0.144248     -0.249049      0.206570
Fe            0.354692     -0.078543     -0.026389
Fe           -0.145691     -0.081378     -0.218761
Fe           -0.357792     -0.246801      0.025635
H            -0.076275     -0.255715      0.042148
H            -0.418174     -0.083239     -0.219988
H             0.092028     -0.060891     -0.034529
H             0.374971     -0.226225      0.203910
O            -0.209157     -0.258505     -0.103703
O            -0.305141     -0.073774      0.151536
O             0.191496     -0.073379      0.088815
O             0.294229     -0.254342     -0.141862
O            -0.051846     -0.253971      0.139791
O            -0.443597     -0.077892     -0.111587
O             0.046135     -0.081291     -0.132191
O             0.431784     -0.238443      0.109048
Fe            0.141462      0.082881      0.232370
Fe            0.358164      0.253582     -0.028481
Fe           -0.140005      0.257450     -0.210084
Fe           -0.359502      0.097564      0.009815
H            -0.088772      0.068804      0.051006
H            -0.370538      0.250890     -0.244629
H             0.076928      0.241844     -0.040359
H             0.416802      0.077075      0.203354
O            -0.180020      0.081508     -0.081748
O            -0.311282      0.261806      0.157660
O             0.205341      0.251493      0.116539
O             0.314383      0.083703     -0.161269
O            -0.051678      0.088246      0.157159
O            -0.434996      0.252807     -0.110721
O             0.062909      0.243683     -0.145786
O             0.453062      0.075970      0.107241
Fe            0.140398      0.414400      0.238427
Fe            0.348883     -0.414139     -0.016204
Fe           -0.147390     -0.417747     -0.220571
Fe           -0.353810      0.429777      0.003148
H            -0.076821      0.427629      0.047844
H            -0.402793     -0.399176     -0.201871
H             0.097381     -0.422118     -0.038927
H             0.408600      0.423624      0.186066
O            -0.178156      0.419559     -0.095978
O            -0.316632     -0.412965      0.149824
O             0.183477     -0.424930      0.098865
O             0.311026      0.424828     -0.158703
O            -0.047120      0.419502      0.147228
O            -0.451095     -0.405667     -0.111625
O             0.050837     -0.401928     -0.132705
O             0.441402      0.420744      0.088223
Fe            0.139979     -0.255057     -0.264677
Fe            0.348226     -0.076930      0.491393
Fe           -0.127714     -0.081263      0.276838
Fe           -0.348912     -0.253938     -0.488593
H            -0.091305     -0.247578     -0.453186
H            -0.365721     -0.068860      0.237125
H             0.074839     -0.077158      0.447865
H             0.430427     -0.251255     -0.289442
O            -0.184880     -0.243591      0.401474
O            -0.304078     -0.084119     -0.350319
O             0.181635     -0.076993     -0.406456
O             0.309824     -0.237546      0.347474
O            -0.066840     -0.257125     -0.352750
O            -0.446564     -0.100158      0.377227
O             0.059075     -0.094199      0.341355
O             0.448126     -0.242015     -0.391607
Fe            0.140719      0.074040     -0.270366
Fe            0.356679      0.258955      0.472378
Fe           -0.161705      0.240360      0.272749
Fe           -0.369136      0.085203     -0.474945
H            -0.082759      0.083403     -0.450256
H            -0.411480      0.229961      0.284921
H             0.071921      0.258774      0.458662
H             0.420975      0.080225     -0.292001
O            -0.201555      0.069110      0.406492
O            -0.301287      0.254685     -0.328073
O             0.196173      0.249529     -0.404208
O             0.308792      0.080075      0.345551
O            -0.050751      0.089177     -0.350772
O            -0.447169      0.244430      0.389567
O             0.039932      0.237581      0.360404
O             0.450549      0.080968     -0.394154
Fe            0.140417      0.406280     -0.273507
Pt            0.359699     -0.424636      0.476591
Fe           -0.144180     -0.418604      0.273091
Fe           -0.343091      0.405281     -0.486654
H            -0.075208      0.426901     -0.456724
H            -0.412339     -0.423474      0.280877
H             0.074352     -0.420939      0.461293
H             0.422761      0.410932     -0.282433
O            -0.180329      0.413475      0.406605
O            -0.302293     -0.410680     -0.350772
O             0.165328     -0.424871     -0.395169
O             0.313052      0.405945      0.322994
O            -0.051751      0.432320     -0.350975
O            -0.432373     -0.415277      0.386312
O             0.051141     -0.419234      0.354392
O             0.456490      0.411942     -0.388950
H             0.492370     -0.154347      0.318123
data_nwchem_pspw

_audit_creation_date   Wed Jun 19 06:10:20 2024
_audit_creation_method    generated by PSPW module of NWChem


_cell_length_a            10.0667
_cell_length_b             9.1552
_cell_length_c             9.2041
_cell_angle_alpha         90.0000
_cell_angle_beta          90.0000
_cell_angle_gamma         90.0000

_symmetry_space_group_name_H-M     P1  

loop_
_atom_site_type_symbol
_atom_site_fract_x
_atom_site_fract_y
_atom_site_fract_z
Fe            0.140482     -0.250328      0.221275
Fe            0.350993     -0.087762     -0.017751
Fe           -0.147484     -0.076616     -0.207629
Fe           -0.350292     -0.266484      0.025099
H            -0.070787     -0.269898      0.058471
H            -0.416895     -0.079215     -0.186313
H             0.099979     -0.082034     -0.051878
H             0.401897     -0.261058      0.191119
O            -0.195300     -0.240507     -0.076746
O            -0.304727     -0.079670      0.161774
O             0.177575     -0.076683      0.086349
O             0.320705     -0.246426     -0.173505
O            -0.056338     -0.263890      0.164424
O            -0.438839     -0.090921     -0.083261
O             0.049526     -0.092361     -0.144612
O             0.443383     -0.261738      0.089602
Fe            0.149771      0.083544      0.222843
Fe            0.353893      0.253807     -0.041664
Fe           -0.137269      0.248950     -0.207038
Fe           -0.358994      0.093261      0.032871
H            -0.109169      0.082812      0.053426
H            -0.386788      0.256504     -0.205573
H             0.111709      0.283681     -0.063338
H             0.418184      0.090730      0.195806
O            -0.200872      0.084927     -0.083535
O            -0.315789      0.245262      0.190801
O             0.178487      0.261050      0.078388
O             0.322675      0.080047     -0.169396
O            -0.066882      0.082050      0.150105
O            -0.439520      0.241464     -0.106808
O             0.064191      0.255544     -0.150619
O             0.430487      0.088668      0.089990
Fe            0.134884      0.428043      0.219317
Fe            0.357372     -0.416710     -0.035236
Fe           -0.154757     -0.415129     -0.213079
Fe           -0.357851      0.409243      0.034583
H            -0.096921      0.393786      0.031785
H            -0.394619     -0.452167     -0.206844
H             0.114446     -0.413353     -0.049584
H             0.387346      0.404212      0.200043
O            -0.183103      0.418147     -0.080579
O            -0.300401     -0.429754      0.160604
O             0.193300     -0.393098      0.091890
O             0.306186      0.423169     -0.166804
O            -0.057405      0.401037      0.146664
O            -0.430384     -0.432635     -0.109952
O             0.058855     -0.431359     -0.135962
O             0.439157      0.412240      0.094746
Fe            0.139199     -0.261527     -0.278021
Fe            0.346093     -0.076496      0.475486
Fe           -0.137035     -0.088155      0.286597
Fe           -0.353963     -0.244177     -0.466268
H            -0.076630     -0.243531     -0.433511
H            -0.371835     -0.095050      0.239599
H             0.116966     -0.080914      0.435535
H             0.388736     -0.233357     -0.289127
O            -0.179061     -0.262820      0.407651
O            -0.308408     -0.082905     -0.328177
O             0.179011     -0.085750     -0.416394
O             0.317209     -0.233427      0.321428
O            -0.051395     -0.258145     -0.332509
O            -0.448377     -0.110482      0.373858
O             0.074143     -0.082045      0.337095
O             0.434700     -0.218313     -0.392063
Fe            0.150819      0.079533     -0.279905
Fe            0.353335      0.256940      0.465372
Fe           -0.136854      0.235688      0.289966
Fe           -0.358076      0.087026     -0.465529
H            -0.097712      0.068142     -0.442334
H            -0.423920      0.254039      0.298975
H             0.098483      0.263791      0.454696
H             0.414205      0.075352     -0.311394
O            -0.195326      0.067531      0.421182
O            -0.309936      0.257463     -0.332145
O             0.185155      0.248883     -0.424697
O             0.317851      0.085177      0.341738
O            -0.053593      0.076165     -0.346999
O            -0.455447      0.265547      0.403559
O             0.058111      0.246725      0.356191
O             0.436626      0.085815     -0.414081
Fe            0.138038      0.415533     -0.286541
Pt            0.360517     -0.402315      0.463783
Fe           -0.145723     -0.431567      0.279306
Fe           -0.353484      0.404961     -0.479268
H            -0.103043      0.415082     -0.437760
H            -0.398436     -0.418393      0.299977
H             0.098286     -0.440636      0.444643
H             0.409591      0.431078     -0.309157
O            -0.182142      0.411488      0.416333
O            -0.311286     -0.422051     -0.349862
O             0.173638     -0.418222     -0.411375
O             0.301773      0.423271      0.315598
O            -0.063558      0.412355     -0.338277
O            -0.431584     -0.408857      0.395702
O             0.057333     -0.420526      0.350169
O             0.432879      0.420581     -0.407317
H             0.499643     -0.191886      0.343053
data_nwchem_pspw

_audit_creation_date   Wed Jun 19 08:26:15 2024
_audit_creation_method    generated by PSPW module of NWChem


_cell_length_a            10.0667
_cell_length_b             9.1552
_cell_length_c             9.2041
_cell_angle_alpha         90.0000
_cell_angle_beta          90.0000
_cell_angle_gamma         90.0000

_symmetry_space_group_name_H-M     P1  

loop_
_atom_site_type_symbol
_atom_site_fract_x
_atom_site_fract_y
_atom_site_fract_z
Fe            0.146277     -0.235802      0.213773
Fe            0.359748     -0.080929     -0.026326
Fe           -0.146046     -0.073751     -0.227461
Fe           -0.355138     -0.246415      0.015897
H            -0.083668     -0.218466      0.062635
H            -0.402064     -0.089717     -0.207531
H             0.105951     -0.073985     -0.057917
H             0.433452     -0.257770      0.198286
O            -0.188638     -0.243217     -0.083388
O            -0.304824     -0.078740      0.157792
O             0.197444     -0.071748      0.084878
O             0.303604     -0.256079     -0.167512
O            -0.053496     -0.244504      0.154012
O            -0.437597     -0.083281     -0.104528
O             0.045765     -0.083587     -0.145930
O             0.454037     -0.241339      0.095000
Fe            0.146009      0.100441      0.219844
Fe            0.367331      0.249746     -0.036024
Fe           -0.148896      0.252595     -0.230760
Fe           -0.358269      0.085773      0.034134
H            -0.098409      0.078154      0.052104
H            -0.388994      0.250711     -0.203120
H             0.071892      0.264437     -0.037418
H             0.406210      0.094140      0.193679
O            -0.191921      0.092765     -0.072281
O            -0.310990      0.253629      0.177416
O             0.192626      0.263326      0.081247
O             0.312467      0.089051     -0.160645
O            -0.052684      0.073906      0.149244
O            -0.428058      0.251643     -0.106450
O             0.053318      0.267935     -0.151395
O             0.444540      0.092025      0.090914
Fe            0.149882      0.423857      0.212315
Fe            0.355556     -0.405968     -0.035038
Fe           -0.141751     -0.406165     -0.218706
Fe           -0.359068      0.413001      0.026257
H            -0.060453      0.407099      0.048812
H            -0.399110     -0.419159     -0.207440
H             0.086412     -0.394554     -0.049373
H             0.407580      0.413022      0.190433
O            -0.191657      0.416346     -0.083801
O            -0.317332     -0.409446      0.158422
O             0.188490     -0.402812      0.075807
O             0.321251      0.418402     -0.159836
O            -0.049569      0.419589      0.155013
O            -0.448607     -0.406872     -0.109292
O             0.061088     -0.409856     -0.155816
O             0.450133      0.425365      0.089261
Fe            0.138851     -0.247439     -0.281941
Fe            0.349737     -0.101845      0.492144
Fe           -0.121551     -0.091258      0.295684
Fe           -0.355827     -0.251318     -0.480834
H            -0.102613     -0.245084     -0.452274
H            -0.360790     -0.089083      0.246928
H             0.089110     -0.092044      0.458461
H             0.401748     -0.272188     -0.302164
O            -0.172919     -0.263004      0.408556
O            -0.311420     -0.096279     -0.337150
O             0.174951     -0.067856     -0.406709
O             0.310205     -0.254798      0.342474
O            -0.066037     -0.235452     -0.351317
O            -0.463415     -0.075137      0.373270
O             0.064191     -0.081499      0.354961
O             0.442127     -0.259976     -0.389120
Fe            0.140185      0.092221     -0.272526
Fe            0.352414      0.234001      0.481947
Fe           -0.149316      0.249104      0.283106
Fe           -0.356977      0.072757     -0.469601
H            -0.093780      0.070434     -0.444130
H            -0.401236      0.229380      0.310158
H             0.099931      0.256704      0.434416
H             0.405222      0.080039     -0.290103
O            -0.187250      0.079673      0.413037
O            -0.309116      0.235375     -0.350489
O             0.194057      0.252971     -0.402834
O             0.307371      0.074016      0.343952
O            -0.061479      0.089179     -0.345637
O            -0.450333      0.232710      0.403413
O             0.063209      0.259064      0.339877
O             0.442698      0.066854     -0.388964
Fe            0.143470      0.419561     -0.277703
Pt            0.349553     -0.431513      0.480578
Fe           -0.150045     -0.422493      0.265868
Fe           -0.357860      0.418754     -0.465182
H            -0.108180      0.434279     -0.446775
H            -0.410945     -0.423388      0.299227
H             0.079655     -0.433300      0.436092
H             0.407999      0.421570     -0.293232
O            -0.196716      0.423314      0.403871
O            -0.306178     -0.415181     -0.338288
O             0.184820     -0.427069     -0.404159
O             0.309608      0.394636      0.337467
O            -0.068086      0.425796     -0.346769
O            -0.444650     -0.427733      0.399937
O             0.070422     -0.421127      0.329007
O             0.443909      0.401671     -0.397509
H            -0.488408      0.018282      0.336423