data_nwchem_pspw

_audit_creation_date   Mon Feb 13 12:25:11 2023
_audit_creation_method    generated by PSPW module of NWChem


_cell_length_a            10.0667
_cell_length_b             9.1552
_cell_length_c             9.2041
_cell_angle_alpha         90.0000
_cell_angle_beta          90.0000
_cell_angle_gamma         90.0000

_symmetry_space_group_name_H-M     P1  

loop_
_atom_site_type_symbol
_atom_site_fract_x
_atom_site_fract_y
_atom_site_fract_z
Fe            0.146735     -0.250000      0.224756
Fe            0.353175     -0.083327     -0.025375
Fe           -0.146825     -0.083327     -0.224625
Fe           -0.353265     -0.250000      0.025244
H            -0.085221     -0.250000      0.049134
H            -0.414737     -0.083030     -0.201101
H             0.085263     -0.083030     -0.048899
H             0.414779     -0.250000      0.200866
O            -0.196748     -0.250000     -0.095276
O            -0.303195     -0.083277      0.154599
O             0.196805     -0.083277      0.095401
O             0.303252     -0.250000     -0.154724
O            -0.053396     -0.250000      0.148894
O            -0.446594     -0.082953     -0.101355
O             0.053406     -0.082954     -0.148645
O             0.446604     -0.250000      0.101106
Fe            0.146825      0.083327      0.224625
Fe            0.353265      0.250000     -0.025244
Fe           -0.146735      0.250000     -0.224756
Fe           -0.353175      0.083327      0.025375
H            -0.085263      0.083030      0.048899
H            -0.414779      0.250000     -0.200866
H             0.085221      0.250000     -0.049134
H             0.414737      0.083030      0.201101
O            -0.196805      0.083277     -0.095401
O            -0.303252      0.250000      0.154724
O             0.196748      0.250000      0.095276
O             0.303195      0.083277     -0.154599
O            -0.053406      0.082954      0.148645
O            -0.446604      0.250000     -0.101106
O             0.053396      0.250000     -0.148894
O             0.446594      0.082953      0.101355
Fe            0.146825      0.416673      0.224625
Fe            0.353175     -0.416673     -0.025375
Fe           -0.146825     -0.416673     -0.224625
Fe           -0.353175      0.416673      0.025375
H            -0.085263      0.416970      0.048899
H            -0.414737     -0.416970     -0.201101
H             0.085263     -0.416970     -0.048899
H             0.414737      0.416970      0.201101
O            -0.196805      0.416723     -0.095401
O            -0.303195     -0.416723      0.154599
O             0.196805     -0.416723      0.095401
O             0.303195      0.416723     -0.154599
O            -0.053406      0.417047      0.148645
O            -0.446594     -0.417047     -0.101355
O             0.053406     -0.417047     -0.148645
O             0.446594      0.417046      0.101355
Fe            0.146735     -0.250000     -0.275244
Fe            0.353175     -0.083327      0.474625
Fe           -0.146825     -0.083327      0.275375
Fe           -0.353265     -0.250000     -0.474756
H            -0.085221     -0.250000     -0.450866
H            -0.414737     -0.083030      0.298899
H             0.085263     -0.083030      0.451101
H             0.414779     -0.250000     -0.299134
O            -0.196748     -0.250000      0.404724
O            -0.303195     -0.083277     -0.345401
O             0.196805     -0.083277     -0.404599
O             0.303252     -0.250000      0.345276
O            -0.053396     -0.250000     -0.351106
O            -0.446594     -0.082953      0.398645
O             0.053406     -0.082954      0.351355
O             0.446604     -0.250000     -0.398894
Fe            0.146825      0.083327     -0.275375
Fe            0.353265      0.250000      0.474756
Fe           -0.146735      0.250000      0.275244
Fe           -0.353175      0.083327     -0.474625
H            -0.085263      0.083030     -0.451101
H            -0.414779      0.250000      0.299134
H             0.085221      0.250000      0.450866
H             0.414737      0.083030     -0.298899
O            -0.196805      0.083277      0.404599
O            -0.303252      0.250000     -0.345276
O             0.196748      0.250000     -0.404724
O             0.303195      0.083277      0.345401
O            -0.053406      0.082954     -0.351355
O            -0.446604      0.250000      0.398894
O             0.053396      0.250000      0.351106
O             0.446594      0.082953     -0.398645
Zn            0.146825      0.416673     -0.275375
Zn            0.353175     -0.416673      0.474625
Fe           -0.146825     -0.416673      0.275375
Fe           -0.353175      0.416673     -0.474625
H            -0.085263      0.416970     -0.451101
H            -0.414737     -0.416970      0.298899
H             0.085263     -0.416970      0.451101
H             0.414737      0.416970     -0.298899
O            -0.196805      0.416723      0.404599
O            -0.303195     -0.416723     -0.345401
O             0.196805     -0.416723     -0.404599
O             0.303195      0.416723      0.345401
O            -0.053406      0.417047     -0.351355
O            -0.446594     -0.417047      0.398645
O             0.053406     -0.417047      0.351355
O             0.446594      0.417046     -0.398645
H             0.253175     -0.316673      0.424625
H             0.200391      0.365788     -0.048061
data_nwchem_pspw

_audit_creation_date   Mon Feb 13 12:29:06 2023
_audit_creation_method    generated by PSPW module of NWChem


_cell_length_a            10.0667
_cell_length_b             9.1552
_cell_length_c             9.2041
_cell_angle_alpha         90.0000
_cell_angle_beta          90.0000
_cell_angle_gamma         90.0000

_symmetry_space_group_name_H-M     P1  

loop_
_atom_site_type_symbol
_atom_site_fract_x
_atom_site_fract_y
_atom_site_fract_z
Fe            0.146735     -0.250000      0.224756
Fe            0.353175     -0.083327     -0.025375
Fe           -0.146825     -0.083327     -0.224625
Fe           -0.353265     -0.250000      0.025244
H            -0.085221     -0.250000      0.049134
H            -0.414737     -0.083030     -0.201101
H             0.085263     -0.083030     -0.048899
H             0.414779     -0.250000      0.200866
O            -0.196748     -0.250000     -0.095276
O            -0.303195     -0.083277      0.154599
O             0.196805     -0.083277      0.095401
O             0.303252     -0.250000     -0.154724
O            -0.053396     -0.250000      0.148894
O            -0.446594     -0.082953     -0.101355
O             0.053406     -0.082954     -0.148645
O             0.446604     -0.250000      0.101106
Fe            0.146825      0.083327      0.224625
Fe            0.353265      0.250000     -0.025244
Fe           -0.146735      0.250000     -0.224756
Fe           -0.353175      0.083327      0.025375
H            -0.085263      0.083030      0.048899
H            -0.414779      0.250000     -0.200866
H             0.085221      0.250000     -0.049134
H             0.414737      0.083030      0.201101
O            -0.196805      0.083277     -0.095401
O            -0.303252      0.250000      0.154724
O             0.196748      0.250000      0.095276
O             0.303195      0.083277     -0.154599
O            -0.053406      0.082954      0.148645
O            -0.446604      0.250000     -0.101106
O             0.053396      0.250000     -0.148894
O             0.446594      0.082953      0.101355
Fe            0.146825      0.416673      0.224625
Fe            0.353175     -0.416673     -0.025375
Fe           -0.146825     -0.416673     -0.224625
Fe           -0.353175      0.416673      0.025375
H            -0.085263      0.416970      0.048899
H            -0.414737     -0.416970     -0.201101
H             0.085263     -0.416970     -0.048899
H             0.414737      0.416970      0.201101
O            -0.196805      0.416723     -0.095401
O            -0.303195     -0.416723      0.154599
O             0.196805     -0.416723      0.095401
O             0.303195      0.416723     -0.154599
O            -0.053406      0.417047      0.148645
O            -0.446594     -0.417047     -0.101355
O             0.053406     -0.417047     -0.148645
O             0.446594      0.417046      0.101355
Fe            0.146735     -0.250000     -0.275244
Fe            0.353175     -0.083327      0.474625
Fe           -0.146825     -0.083327      0.275375
Fe           -0.353265     -0.250000     -0.474756
H            -0.085221     -0.250000     -0.450866
H            -0.414737     -0.083030      0.298899
H             0.085263     -0.083030      0.451101
H             0.414779     -0.250000     -0.299134
O            -0.196748     -0.250000      0.404724
O            -0.303195     -0.083277     -0.345401
O             0.196805     -0.083277     -0.404599
O             0.303252     -0.250000      0.345276
O            -0.053396     -0.250000     -0.351106
O            -0.446594     -0.082953      0.398645
O             0.053406     -0.082954      0.351355
O             0.446604     -0.250000     -0.398894
Fe            0.146825      0.083327     -0.275375
Fe            0.353265      0.250000      0.474756
Fe           -0.146735      0.250000      0.275244
Fe           -0.353175      0.083327     -0.474625
H            -0.085263      0.083030     -0.451101
H            -0.414779      0.250000      0.299134
H             0.085221      0.250000      0.450866
H             0.414737      0.083030     -0.298899
O            -0.196805      0.083277      0.404599
O            -0.303252      0.250000     -0.345276
O             0.196748      0.250000     -0.404724
O             0.303195      0.083277      0.345401
O            -0.053406      0.082954     -0.351355
O            -0.446604      0.250000      0.398894
O             0.053396      0.250000      0.351106
O             0.446594      0.082953     -0.398645
Zn            0.146825      0.416673     -0.275375
Zn            0.353175     -0.416673      0.474625
Fe           -0.146825     -0.416673      0.275375
Fe           -0.353175      0.416673     -0.474625
H            -0.085263      0.416970     -0.451101
H            -0.414737     -0.416970      0.298899
H             0.085263     -0.416970      0.451101
H             0.414737      0.416970     -0.298899
O            -0.196805      0.416723      0.404599
O            -0.303195     -0.416723     -0.345401
O             0.196805     -0.416723     -0.404599
O             0.303195      0.416723      0.345401
O            -0.053406      0.417047     -0.351355
O            -0.446594     -0.417047      0.398645
O             0.053406     -0.417047      0.351355
O             0.446594      0.417046     -0.398645
H             0.253175     -0.316673      0.424625
H             0.200391      0.365788     -0.048061
data_nwchem_pspw

_audit_creation_date   Mon Feb 13 12:30:47 2023
_audit_creation_method    generated by PSPW module of NWChem


_cell_length_a            10.0667
_cell_length_b             9.1552
_cell_length_c             9.2041
_cell_angle_alpha         90.0000
_cell_angle_beta          90.0000
_cell_angle_gamma         90.0000

_symmetry_space_group_name_H-M     P1  

loop_
_atom_site_type_symbol
_atom_site_fract_x
_atom_site_fract_y
_atom_site_fract_z
Fe            0.146735     -0.250000      0.224756
Fe            0.353175     -0.083327     -0.025375
Fe           -0.146825     -0.083327     -0.224625
Fe           -0.353265     -0.250000      0.025244
H            -0.085221     -0.250000      0.049134
H            -0.414737     -0.083030     -0.201101
H             0.085263     -0.083030     -0.048899
H             0.414779     -0.250000      0.200866
O            -0.196748     -0.250000     -0.095276
O            -0.303195     -0.083277      0.154599
O             0.196805     -0.083277      0.095401
O             0.303252     -0.250000     -0.154724
O            -0.053396     -0.250000      0.148894
O            -0.446594     -0.082953     -0.101355
O             0.053406     -0.082954     -0.148645
O             0.446604     -0.250000      0.101106
Fe            0.146825      0.083327      0.224625
Fe            0.353265      0.250000     -0.025244
Fe           -0.146735      0.250000     -0.224756
Fe           -0.353175      0.083327      0.025375
H            -0.085263      0.083030      0.048899
H            -0.414779      0.250000     -0.200866
H             0.085221      0.250000     -0.049134
H             0.414737      0.083030      0.201101
O            -0.196805      0.083277     -0.095401
O            -0.303252      0.250000      0.154724
O             0.196748      0.250000      0.095276
O             0.303195      0.083277     -0.154599
O            -0.053406      0.082954      0.148645
O            -0.446604      0.250000     -0.101106
O             0.053396      0.250000     -0.148894
O             0.446594      0.082953      0.101355
Fe            0.146825      0.416673      0.224625
Fe            0.353175     -0.416673     -0.025375
Fe           -0.146825     -0.416673     -0.224625
Fe           -0.353175      0.416673      0.025375
H            -0.085263      0.416970      0.048899
H            -0.414737     -0.416970     -0.201101
H             0.085263     -0.416970     -0.048899
H             0.414737      0.416970      0.201101
O            -0.196805      0.416723     -0.095401
O            -0.303195     -0.416723      0.154599
O             0.196805     -0.416723      0.095401
O             0.303195      0.416723     -0.154599
O            -0.053406      0.417047      0.148645
O            -0.446594     -0.417047     -0.101355
O             0.053406     -0.417047     -0.148645
O             0.446594      0.417046      0.101355
Fe            0.146735     -0.250000     -0.275244
Fe            0.353175     -0.083327      0.474625
Fe           -0.146825     -0.083327      0.275375
Fe           -0.353265     -0.250000     -0.474756
H            -0.085221     -0.250000     -0.450866
H            -0.414737     -0.083030      0.298899
H             0.085263     -0.083030      0.451101
H             0.414779     -0.250000     -0.299134
O            -0.196748     -0.250000      0.404724
O            -0.303195     -0.083277     -0.345401
O             0.196805     -0.083277     -0.404599
O             0.303252     -0.250000      0.345276
O            -0.053396     -0.250000     -0.351106
O            -0.446594     -0.082953      0.398645
O             0.053406     -0.082954      0.351355
O             0.446604     -0.250000     -0.398894
Fe            0.146825      0.083327     -0.275375
Fe            0.353265      0.250000      0.474756
Fe           -0.146735      0.250000      0.275244
Fe           -0.353175      0.083327     -0.474625
H            -0.085263      0.083030     -0.451101
H            -0.414779      0.250000      0.299134
H             0.085221      0.250000      0.450866
H             0.414737      0.083030     -0.298899
O            -0.196805      0.083277      0.404599
O            -0.303252      0.250000     -0.345276
O             0.196748      0.250000     -0.404724
O             0.303195      0.083277      0.345401
O            -0.053406      0.082954     -0.351355
O            -0.446604      0.250000      0.398894
O             0.053396      0.250000      0.351106
O             0.446594      0.082953     -0.398645
Zn            0.146825      0.416673     -0.275375
Zn            0.353175     -0.416673      0.474625
Fe           -0.146825     -0.416673      0.275375
Fe           -0.353175      0.416673     -0.474625
H            -0.085263      0.416970     -0.451101
H            -0.414737     -0.416970      0.298899
H             0.085263     -0.416970      0.451101
H             0.414737      0.416970     -0.298899
O            -0.196805      0.416723      0.404599
O            -0.303195     -0.416723     -0.345401
O             0.196805     -0.416723     -0.404599
O             0.303195      0.416723      0.345401
O            -0.053406      0.417047     -0.351355
O            -0.446594     -0.417047      0.398645
O             0.053406     -0.417047      0.351355
O             0.446594      0.417046     -0.398645
H             0.253175     -0.316673      0.424625
H             0.200391      0.365788     -0.048061
data_nwchem_pspw

_audit_creation_date   Mon Feb 13 12:32:05 2023
_audit_creation_method    generated by PSPW module of NWChem


_cell_length_a            10.0667
_cell_length_b             9.1552
_cell_length_c             9.2041
_cell_angle_alpha         90.0000
_cell_angle_beta          90.0000
_cell_angle_gamma         90.0000

_symmetry_space_group_name_H-M     P1  

loop_
_atom_site_type_symbol
_atom_site_fract_x
_atom_site_fract_y
_atom_site_fract_z
Fe            0.146735     -0.250000      0.224756
Fe            0.353175     -0.083327     -0.025375
Fe           -0.146825     -0.083327     -0.224625
Fe           -0.353265     -0.250000      0.025244
H            -0.085221     -0.250000      0.049134
H            -0.414737     -0.083030     -0.201101
H             0.085263     -0.083030     -0.048899
H             0.414779     -0.250000      0.200866
O            -0.196748     -0.250000     -0.095276
O            -0.303195     -0.083277      0.154599
O             0.196805     -0.083277      0.095401
O             0.303252     -0.250000     -0.154724
O            -0.053396     -0.250000      0.148894
O            -0.446594     -0.082953     -0.101355
O             0.053406     -0.082954     -0.148645
O             0.446604     -0.250000      0.101106
Fe            0.146825      0.083327      0.224625
Fe            0.353265      0.250000     -0.025244
Fe           -0.146735      0.250000     -0.224756
Fe           -0.353175      0.083327      0.025375
H            -0.085263      0.083030      0.048899
H            -0.414779      0.250000     -0.200866
H             0.085221      0.250000     -0.049134
H             0.414737      0.083030      0.201101
O            -0.196805      0.083277     -0.095401
O            -0.303252      0.250000      0.154724
O             0.196748      0.250000      0.095276
O             0.303195      0.083277     -0.154599
O            -0.053406      0.082954      0.148645
O            -0.446604      0.250000     -0.101106
O             0.053396      0.250000     -0.148894
O             0.446594      0.082953      0.101355
Fe            0.146825      0.416673      0.224625
Fe            0.353175     -0.416673     -0.025375
Fe           -0.146825     -0.416673     -0.224625
Fe           -0.353175      0.416673      0.025375
H            -0.085263      0.416970      0.048899
H            -0.414737     -0.416970     -0.201101
H             0.085263     -0.416970     -0.048899
H             0.414737      0.416970      0.201101
O            -0.196805      0.416723     -0.095401
O            -0.303195     -0.416723      0.154599
O             0.196805     -0.416723      0.095401
O             0.303195      0.416723     -0.154599
O            -0.053406      0.417047      0.148645
O            -0.446594     -0.417047     -0.101355
O             0.053406     -0.417047     -0.148645
O             0.446594      0.417046      0.101355
Fe            0.146735     -0.250000     -0.275244
Fe            0.353175     -0.083327      0.474625
Fe           -0.146825     -0.083327      0.275375
Fe           -0.353265     -0.250000     -0.474756
H            -0.085221     -0.250000     -0.450866
H            -0.414737     -0.083030      0.298899
H             0.085263     -0.083030      0.451101
H             0.414779     -0.250000     -0.299134
O            -0.196748     -0.250000      0.404724
O            -0.303195     -0.083277     -0.345401
O             0.196805     -0.083277     -0.404599
O             0.303252     -0.250000      0.345276
O            -0.053396     -0.250000     -0.351106
O            -0.446594     -0.082953      0.398645
O             0.053406     -0.082954      0.351355
O             0.446604     -0.250000     -0.398894
Fe            0.146825      0.083327     -0.275375
Fe            0.353265      0.250000      0.474756
Fe           -0.146735      0.250000      0.275244
Fe           -0.353175      0.083327     -0.474625
H            -0.085263      0.083030     -0.451101
H            -0.414779      0.250000      0.299134
H             0.085221      0.250000      0.450866
H             0.414737      0.083030     -0.298899
O            -0.196805      0.083277      0.404599
O            -0.303252      0.250000     -0.345276
O             0.196748      0.250000     -0.404724
O             0.303195      0.083277      0.345401
O            -0.053406      0.082954     -0.351355
O            -0.446604      0.250000      0.398894
O             0.053396      0.250000      0.351106
O             0.446594      0.082953     -0.398645
Zn            0.146825      0.416673     -0.275375
Zn            0.353175     -0.416673      0.474625
Fe           -0.146825     -0.416673      0.275375
Fe           -0.353175      0.416673     -0.474625
H            -0.085263      0.416970     -0.451101
H            -0.414737     -0.416970      0.298899
H             0.085263     -0.416970      0.451101
H             0.414737      0.416970     -0.298899
O            -0.196805      0.416723      0.404599
O            -0.303195     -0.416723     -0.345401
O             0.196805     -0.416723     -0.404599
O             0.303195      0.416723      0.345401
O            -0.053406      0.417047     -0.351355
O            -0.446594     -0.417047      0.398645
O             0.053406     -0.417047      0.351355
O             0.446594      0.417046     -0.398645
H             0.253175     -0.316673      0.424625
H             0.200391      0.365788     -0.048061
data_nwchem_pspw

_audit_creation_date   Mon Feb 13 12:38:54 2023
_audit_creation_method    generated by PSPW module of NWChem


_cell_length_a            10.0667
_cell_length_b             9.1552
_cell_length_c             9.2041
_cell_angle_alpha         90.0000
_cell_angle_beta          90.0000
_cell_angle_gamma         90.0000

_symmetry_space_group_name_H-M     P1  

loop_
_atom_site_type_symbol
_atom_site_fract_x
_atom_site_fract_y
_atom_site_fract_z
Fe            0.146735     -0.250000      0.224756
Fe            0.353175     -0.083327     -0.025375
Fe           -0.146825     -0.083327     -0.224625
Fe           -0.353265     -0.250000      0.025244
H            -0.085221     -0.250000      0.049134
H            -0.414737     -0.083030     -0.201101
H             0.085263     -0.083030     -0.048899
H             0.414779     -0.250000      0.200866
O            -0.196748     -0.250000     -0.095276
O            -0.303195     -0.083277      0.154599
O             0.196805     -0.083277      0.095401
O             0.303252     -0.250000     -0.154724
O            -0.053396     -0.250000      0.148894
O            -0.446594     -0.082953     -0.101355
O             0.053406     -0.082954     -0.148645
O             0.446604     -0.250000      0.101106
Fe            0.146825      0.083327      0.224625
Fe            0.353265      0.250000     -0.025244
Fe           -0.146735      0.250000     -0.224756
Fe           -0.353175      0.083327      0.025375
H            -0.085263      0.083030      0.048899
H            -0.414779      0.250000     -0.200866
H             0.085221      0.250000     -0.049134
H             0.414737      0.083030      0.201101
O            -0.196805      0.083277     -0.095401
O            -0.303252      0.250000      0.154724
O             0.196748      0.250000      0.095276
O             0.303195      0.083277     -0.154599
O            -0.053406      0.082954      0.148645
O            -0.446604      0.250000     -0.101106
O             0.053396      0.250000     -0.148894
O             0.446594      0.082953      0.101355
Fe            0.146825      0.416673      0.224625
Fe            0.353175     -0.416673     -0.025375
Fe           -0.146825     -0.416673     -0.224625
Fe           -0.353175      0.416673      0.025375
H            -0.085263      0.416970      0.048899
H            -0.414737     -0.416970     -0.201101
H             0.085263     -0.416970     -0.048899
H             0.414737      0.416970      0.201101
O            -0.196805      0.416723     -0.095401
O            -0.303195     -0.416723      0.154599
O             0.196805     -0.416723      0.095401
O             0.303195      0.416723     -0.154599
O            -0.053406      0.417047      0.148645
O            -0.446594     -0.417047     -0.101355
O             0.053406     -0.417047     -0.148645
O             0.446594      0.417046      0.101355
Fe            0.146735     -0.250000     -0.275244
Fe            0.353175     -0.083327      0.474625
Fe           -0.146825     -0.083327      0.275375
Fe           -0.353265     -0.250000     -0.474756
H            -0.085221     -0.250000     -0.450866
H            -0.414737     -0.083030      0.298899
H             0.085263     -0.083030      0.451101
H             0.414779     -0.250000     -0.299134
O            -0.196748     -0.250000      0.404724
O            -0.303195     -0.083277     -0.345401
O             0.196805     -0.083277     -0.404599
O             0.303252     -0.250000      0.345276
O            -0.053396     -0.250000     -0.351106
O            -0.446594     -0.082953      0.398645
O             0.053406     -0.082954      0.351355
O             0.446604     -0.250000     -0.398894
Fe            0.146825      0.083327     -0.275375
Fe            0.353265      0.250000      0.474756
Fe           -0.146735      0.250000      0.275244
Fe           -0.353175      0.083327     -0.474625
H            -0.085263      0.083030     -0.451101
H            -0.414779      0.250000      0.299134
H             0.085221      0.250000      0.450866
H             0.414737      0.083030     -0.298899
O            -0.196805      0.083277      0.404599
O            -0.303252      0.250000     -0.345276
O             0.196748      0.250000     -0.404724
O             0.303195      0.083277      0.345401
O            -0.053406      0.082954     -0.351355
O            -0.446604      0.250000      0.398894
O             0.053396      0.250000      0.351106
O             0.446594      0.082953     -0.398645
Zn            0.146825      0.416673     -0.275375
Zn            0.353175     -0.416673      0.474625
Fe           -0.146825     -0.416673      0.275375
Fe           -0.353175      0.416673     -0.474625
H            -0.085263      0.416970     -0.451101
H            -0.414737     -0.416970      0.298899
H             0.085263     -0.416970      0.451101
H             0.414737      0.416970     -0.298899
O            -0.196805      0.416723      0.404599
O            -0.303195     -0.416723     -0.345401
O             0.196805     -0.416723     -0.404599
O             0.303195      0.416723      0.345401
O            -0.053406      0.417047     -0.351355
O            -0.446594     -0.417047      0.398645
O             0.053406     -0.417047      0.351355
O             0.446594      0.417046     -0.398645
H             0.253175     -0.316673      0.424625
H             0.200391      0.365788     -0.048061
data_nwchem_pspw

_audit_creation_date   Mon Feb 13 14:55:08 2023
_audit_creation_method    generated by PSPW module of NWChem


_cell_length_a            10.0667
_cell_length_b             9.1552
_cell_length_c             9.2041
_cell_angle_alpha         90.0000
_cell_angle_beta          90.0000
_cell_angle_gamma         90.0000

_symmetry_space_group_name_H-M     P1  

loop_
_atom_site_type_symbol
_atom_site_fract_x
_atom_site_fract_y
_atom_site_fract_z
Fe            0.141325     -0.249235      0.216746
Fe            0.355829     -0.080594     -0.025062
Fe           -0.152448     -0.077688     -0.217205
Fe           -0.359815     -0.252425      0.027803
H            -0.081456     -0.246976      0.054376
H            -0.410275     -0.090335     -0.192644
H             0.109600     -0.082497     -0.042221
H             0.446025     -0.274983      0.209681
O            -0.207445     -0.237831     -0.093424
O            -0.295842     -0.079026      0.151039
O             0.188484     -0.080719      0.096970
O             0.304869     -0.245740     -0.155879
O            -0.061952     -0.252789      0.156940
O            -0.452343     -0.066787     -0.098786
O             0.066179     -0.074668     -0.135935
O             0.438964     -0.255995      0.106767
Fe            0.140717      0.082360      0.235028
Fe            0.372645      0.252990     -0.052737
Fe           -0.149463      0.258946     -0.220754
Fe           -0.354626      0.079786      0.026838
H            -0.075347      0.074492      0.055236
H            -0.410410      0.262415     -0.219768
H             0.132104      0.232141      0.021043
H             0.392949      0.095362      0.197375
O            -0.185301      0.086723     -0.087176
O            -0.312329      0.260172      0.148352
O             0.204693      0.263822      0.084160
O             0.305710      0.085584     -0.144189
O            -0.050978      0.086597      0.158614
O            -0.435430      0.252013     -0.118496
O             0.045075      0.251509     -0.118192
O             0.438665      0.085857      0.105809
Fe            0.154728      0.428682      0.239129
Fe            0.352248     -0.409349     -0.025588
Fe           -0.143786     -0.406308     -0.230767
Fe           -0.351655      0.417963      0.019484
H            -0.103669      0.407804      0.054845
H            -0.424619     -0.409105     -0.215291
H             0.089044     -0.427308     -0.047196
H             0.393751      0.408832      0.193748
O            -0.196953      0.428660     -0.106086
O            -0.294531     -0.426435      0.136732
O             0.192606     -0.415900      0.099547
O             0.299710      0.419590     -0.167429
O            -0.062000      0.404654      0.151186
O            -0.446256     -0.417711     -0.113924
O             0.043586     -0.415436     -0.142527
O             0.440405      0.420275      0.100721
Fe            0.151250     -0.247334     -0.272005
Fe            0.355805     -0.094355      0.483915
Fe           -0.140686     -0.082690      0.288737
Fe           -0.352537     -0.253577     -0.476402
H            -0.066885     -0.239490     -0.440565
H            -0.405935     -0.077480      0.310335
H             0.082275     -0.074971      0.455667
H             0.408368     -0.260466     -0.290067
O            -0.204070     -0.249080      0.401338
O            -0.311766     -0.097382     -0.333523
O             0.197572     -0.077824     -0.398942
O             0.274478     -0.263499      0.376096
O            -0.055408     -0.243469     -0.337822
O            -0.443689     -0.098438      0.406188
O             0.052643     -0.083212      0.356351
O             0.447886     -0.256132     -0.387995
Fe            0.145018      0.088719     -0.266646
Fe            0.342844      0.236816      0.466030
Fe           -0.155161      0.248373      0.275687
Fe           -0.340886      0.079758     -0.467917
H            -0.103115      0.105937     -0.440712
H            -0.421522      0.259195      0.284708
H             0.079590      0.274069      0.450570
H             0.444861      0.099836     -0.306259
O            -0.195619      0.089496      0.405012
O            -0.293415      0.260836     -0.362271
O             0.188061      0.232127     -0.413166
O             0.291977      0.073816      0.342697
O            -0.059823      0.079266     -0.350142
O            -0.441770      0.247092      0.386917
O             0.040378      0.253610      0.355190
O             0.463252      0.085871     -0.406759
Zn            0.149578      0.420812     -0.300615
Zn            0.373764     -0.430613      0.487321
Fe           -0.149113     -0.420863      0.275206
Fe           -0.354501      0.409986     -0.487940
H            -0.100162      0.413747     -0.457441
H            -0.408407     -0.449695      0.299888
H             0.088418     -0.397276      0.452633
H             0.409936      0.406742     -0.310885
O            -0.197966      0.409340      0.389557
O            -0.300144     -0.411669     -0.361780
O             0.189397     -0.393046     -0.412927
O             0.294828      0.401018      0.347462
O            -0.054910      0.426793     -0.361518
O            -0.439809     -0.422661      0.394663
O             0.043273     -0.423773      0.358939
O             0.445252      0.387616     -0.408677
H             0.216519     -0.290249      0.460011
H             0.023817      0.339145     -0.059925
data_nwchem_pspw

_audit_creation_date   Mon Feb 13 16:55:20 2023
_audit_creation_method    generated by PSPW module of NWChem


_cell_length_a            10.0667
_cell_length_b             9.1552
_cell_length_c             9.2041
_cell_angle_alpha         90.0000
_cell_angle_beta          90.0000
_cell_angle_gamma         90.0000

_symmetry_space_group_name_H-M     P1  

loop_
_atom_site_type_symbol
_atom_site_fract_x
_atom_site_fract_y
_atom_site_fract_z
Fe            0.134854     -0.244290      0.205938
Fe            0.358304     -0.086465     -0.023509
Fe           -0.144975     -0.086968     -0.216264
Fe           -0.351140     -0.260785      0.028837
H            -0.086891     -0.243480      0.036639
H            -0.441589     -0.034756     -0.186823
H             0.089910     -0.093846     -0.047460
H             0.421556     -0.293108      0.209656
O            -0.197006     -0.262731     -0.099512
O            -0.310159     -0.093704      0.159732
O             0.209130     -0.080540      0.105146
O             0.306728     -0.254736     -0.152057
O            -0.061694     -0.234815      0.140548
O            -0.451553     -0.078754     -0.093608
O             0.059968     -0.086284     -0.146575
O             0.425984     -0.273247      0.108055
Fe            0.147913      0.085147      0.248227
Fe            0.358129      0.241438     -0.052014
Fe           -0.156394      0.243647     -0.238522
Fe           -0.349248      0.076677      0.042218
H            -0.076465      0.067933      0.043184
H            -0.427470      0.271101     -0.213255
H             0.120444      0.249634      0.031076
H             0.422847      0.064553      0.207881
O            -0.217276      0.092068     -0.089157
O            -0.289530      0.248333      0.154839
O             0.204985      0.252748      0.090080
O             0.314635      0.073563     -0.168533
O            -0.049609      0.072334      0.142845
O            -0.443764      0.256083     -0.111012
O             0.028205      0.224080     -0.115228
O             0.449341      0.082537      0.105353
Fe            0.142551      0.424744      0.224788
Fe            0.347730     -0.418244     -0.023596
Fe           -0.142599     -0.410163     -0.231738
Fe           -0.356122      0.403673      0.022903
H            -0.090920      0.417006      0.045842
H            -0.402905     -0.409428     -0.194340
H             0.077437     -0.433545     -0.053244
H             0.417155      0.399105      0.182699
O            -0.201012      0.419808     -0.100702
O            -0.302486     -0.425492      0.166838
O             0.196643     -0.417263      0.095284
O             0.296987      0.415845     -0.153062
O            -0.061985      0.411327      0.147032
O            -0.446199     -0.413224     -0.100826
O             0.046415     -0.426673     -0.151861
O             0.447952      0.414346      0.084566
Fe            0.151139     -0.249690     -0.279981
Fe            0.357788     -0.073213      0.492533
Fe           -0.150842     -0.082242      0.279735
Fe           -0.357754     -0.238865     -0.478682
H            -0.082870     -0.230342     -0.442167
H            -0.417907     -0.064853      0.310891
H             0.086484     -0.081483      0.452997
H             0.406953     -0.262397     -0.298351
O            -0.203368     -0.240272      0.405388
O            -0.292915     -0.085666     -0.336994
O             0.191028     -0.069140     -0.409983
O             0.288848     -0.248701      0.364036
O            -0.041408     -0.243533     -0.348377
O            -0.455540     -0.063850      0.408152
O             0.042914     -0.080431      0.357021
O             0.444217     -0.231044     -0.392309
Fe            0.133483      0.081303     -0.272730
Fe            0.364142      0.245548      0.484034
Fe           -0.131476      0.243711      0.264816
Fe           -0.360624      0.092151     -0.458718
H            -0.093594      0.063687     -0.466881
H            -0.403712      0.265358      0.298396
H             0.100513      0.257531      0.458602
H             0.400545      0.093034     -0.285420
O            -0.200088      0.095458      0.405985
O            -0.311721      0.251072     -0.342771
O             0.194961      0.228904     -0.409384
O             0.320860      0.071955      0.339652
O            -0.058195      0.067472     -0.364996
O            -0.443376      0.273869      0.394578
O             0.065743      0.251971      0.354473
O             0.448189      0.104864     -0.383840
Zn            0.146027      0.425489     -0.301341
Zn            0.371860     -0.437001      0.487893
Fe           -0.149552     -0.410238      0.276230
Fe           -0.344000      0.424955     -0.481770
H            -0.070552      0.447929     -0.456217
H            -0.401574     -0.431794      0.292376
H             0.074062     -0.384435      0.426151
H             0.411478      0.410618     -0.291700
O            -0.185955      0.412012      0.400337
O            -0.307097     -0.396080     -0.355626
O             0.192479     -0.393755     -0.426287
O             0.304111      0.402070      0.351156
O            -0.062793      0.434938     -0.353306
O            -0.447473     -0.416364      0.386797
O             0.047276     -0.400573      0.327483
O             0.460154      0.394072     -0.383900
H             0.224176     -0.284808      0.434336
H             0.023621      0.327898     -0.091370
data_nwchem_pspw

_audit_creation_date   Mon Feb 13 18:55:08 2023
_audit_creation_method    generated by PSPW module of NWChem


_cell_length_a            10.0667
_cell_length_b             9.1552
_cell_length_c             9.2041
_cell_angle_alpha         90.0000
_cell_angle_beta          90.0000
_cell_angle_gamma         90.0000

_symmetry_space_group_name_H-M     P1  

loop_
_atom_site_type_symbol
_atom_site_fract_x
_atom_site_fract_y
_atom_site_fract_z
Fe            0.138112     -0.262258      0.203362
Fe            0.342536     -0.087340     -0.025790
Fe           -0.158853     -0.085164     -0.224987
Fe           -0.357571     -0.245101      0.021887
H            -0.099576     -0.240554      0.045714
H            -0.397309     -0.077276     -0.201174
H             0.078111     -0.070960     -0.065792
H             0.429163     -0.235571      0.212921
O            -0.198695     -0.248380     -0.105272
O            -0.300196     -0.095836      0.154416
O             0.176423     -0.083959      0.084036
O             0.299464     -0.269637     -0.143062
O            -0.055834     -0.245311      0.140192
O            -0.446421     -0.075199     -0.109483
O             0.044898     -0.071991     -0.166210
O             0.446666     -0.259136      0.113162
Fe            0.135074      0.073499      0.238588
Fe            0.348307      0.253574     -0.046059
Fe           -0.139168      0.242283     -0.214449
Fe           -0.371503      0.079954      0.019009
H            -0.059101      0.089278      0.038675
H            -0.417233      0.250970     -0.211928
H             0.123892      0.230446      0.039139
H             0.393477      0.075736      0.194002
O            -0.227847      0.080192     -0.103293
O            -0.304871      0.251893      0.135147
O             0.196742      0.253878      0.101952
O             0.295252      0.070512     -0.152135
O            -0.047152      0.082279      0.142880
O            -0.455226      0.250931     -0.114197
O             0.044283      0.243816     -0.128881
O             0.437780      0.068363      0.099956
Fe            0.153534      0.413793      0.265203
Fe            0.361553     -0.412752     -0.001268
Fe           -0.146797     -0.410087     -0.226569
Fe           -0.347726      0.410162      0.008290
H            -0.098793      0.419275      0.057031
H            -0.398995     -0.420463     -0.203267
H             0.069322     -0.427557     -0.047476
H             0.420067      0.415167      0.204428
O            -0.181432      0.423320     -0.103265
O            -0.283878     -0.411364      0.147960
O             0.186725     -0.438949      0.099552
O             0.302377      0.426479     -0.147839
O            -0.056549      0.399382      0.150897
O            -0.445713     -0.425370     -0.107129
O             0.051159     -0.426215     -0.150946
O             0.453895      0.408541      0.104384
Fe            0.146763     -0.248219     -0.272575
Fe            0.359219     -0.059803      0.486498
Fe           -0.150923     -0.099181      0.280156
Fe           -0.344602     -0.239256     -0.490178
H            -0.070254     -0.253372     -0.457132
H            -0.428675     -0.070444      0.297467
H             0.048477     -0.070950      0.449140
H             0.415963     -0.233900     -0.295131
O            -0.193097     -0.272368      0.403338
O            -0.294651     -0.077489     -0.366420
O             0.206141     -0.080551     -0.398177
O             0.304773     -0.237643      0.344510
O            -0.053517     -0.246879     -0.354235
O            -0.464160     -0.076166      0.394592
O             0.052484     -0.095775      0.349772
O             0.450070     -0.242155     -0.392009
Fe            0.143715      0.100178     -0.268022
Fe            0.353070      0.254520      0.483970
Fe           -0.158666      0.241946      0.258139
Fe           -0.352930      0.100625     -0.479807
H            -0.093339      0.096957     -0.452411
H            -0.417910      0.224425      0.311818
H             0.065387      0.232722      0.447835
H             0.400622      0.095170     -0.300481
O            -0.219047      0.084006      0.376162
O            -0.298605      0.252323     -0.346319
O             0.187768      0.250712     -0.406257
O             0.297461      0.089957      0.345046
O            -0.057949      0.074989     -0.361295
O            -0.456449      0.260001      0.401067
O             0.052981      0.240657      0.345205
O             0.447240      0.101235     -0.395050
Zn            0.156641      0.423730     -0.297224
Zn            0.388561     -0.413040     -0.485464
Fe           -0.131696     -0.433421      0.266988
Fe           -0.341905      0.421467     -0.474938
H            -0.082602      0.405314     -0.454491
H            -0.420844     -0.420709      0.301950
H             0.129792     -0.430768      0.497283
H             0.448463      0.400496     -0.281364
O            -0.206325      0.400678      0.398503
O            -0.305271     -0.409015     -0.342788
O             0.188861     -0.401145     -0.419865
O             0.314877      0.416951      0.358952
O            -0.052442      0.416891     -0.356052
O            -0.439072     -0.416529      0.406456
O             0.049723     -0.435518      0.352718
O             0.463772      0.412920     -0.386529
H             0.232025     -0.221502      0.411489
H             0.051069      0.335213     -0.079731
data_nwchem_pspw

_audit_creation_date   Mon Feb 13 20:55:55 2023
_audit_creation_method    generated by PSPW module of NWChem


_cell_length_a            10.0667
_cell_length_b             9.1552
_cell_length_c             9.2041
_cell_angle_alpha         90.0000
_cell_angle_beta          90.0000
_cell_angle_gamma         90.0000

_symmetry_space_group_name_H-M     P1  

loop_
_atom_site_type_symbol
_atom_site_fract_x
_atom_site_fract_y
_atom_site_fract_z
Fe            0.140893     -0.247007      0.196238
Fe            0.360262     -0.078941     -0.035678
Fe           -0.142567     -0.104640     -0.212196
Fe           -0.347532     -0.257674      0.033852
H            -0.079836     -0.279567      0.053853
H            -0.400327     -0.071730     -0.221498
H             0.091941     -0.092037     -0.064279
H             0.445068     -0.279179      0.213722
O            -0.176909     -0.268365     -0.082110
O            -0.305193     -0.075409      0.152386
O             0.210061     -0.067387      0.095321
O             0.304099     -0.256244     -0.138686
O            -0.053578     -0.243059      0.150607
O            -0.440943     -0.084824     -0.122973
O             0.051676     -0.080820     -0.159733
O             0.455340     -0.256658      0.112701
Fe            0.143710      0.078283      0.237398
Fe            0.345106      0.244928     -0.033976
Fe           -0.151802      0.240500     -0.226208
Fe           -0.357482      0.073840      0.016553
H            -0.082496      0.064537      0.041281
H            -0.411133      0.253281     -0.204068
H             0.100768      0.229392      0.027297
H             0.413666      0.078235      0.190811
O            -0.202069      0.076267     -0.099860
O            -0.308007      0.233416      0.158746
O             0.179880      0.243211      0.099688
O             0.283715      0.072246     -0.149500
O            -0.047200      0.070317      0.139264
O            -0.446472      0.244949     -0.104575
O             0.029033      0.241162     -0.107436
O             0.439647      0.088206      0.089612
Fe            0.146025      0.420582      0.238338
Fe            0.368329     -0.419473     -0.027415
Fe           -0.138930     -0.427811     -0.223440
Fe           -0.345578      0.412521      0.027433
H            -0.084089      0.415979      0.066219
H            -0.384581     -0.405947     -0.196370
H             0.106597     -0.414299     -0.053773
H             0.429207      0.422392      0.222729
O            -0.196640      0.406866     -0.099037
O            -0.284523     -0.428108      0.151283
O             0.216788     -0.411247      0.101921
O             0.312704      0.417918     -0.152562
O            -0.058202      0.408206      0.166148
O            -0.429448     -0.421954     -0.101766
O             0.064178     -0.424825     -0.147920
O             0.456921      0.422439      0.122286
Fe            0.150832     -0.238954     -0.276161
Fe            0.340996     -0.065294      0.463003
Fe           -0.154792     -0.079883      0.273222
Fe           -0.352618     -0.243834     -0.480807
H            -0.075926     -0.277986     -0.450142
H            -0.436648     -0.070122      0.292375
H             0.070112     -0.092269      0.450375
H             0.440687     -0.214940     -0.301490
O            -0.202850     -0.248059      0.404702
O            -0.302206     -0.085696     -0.347163
O             0.183061     -0.071359     -0.419337
O             0.295362     -0.238977      0.346474
O            -0.053401     -0.261892     -0.350362
O            -0.451812     -0.065818      0.395120
O             0.041045     -0.108011      0.346403
O             0.449672     -0.216762     -0.404184
Fe            0.129543      0.094254     -0.276941
Fe            0.345143      0.264713      0.471491
Fe           -0.152890      0.238029      0.267560
Fe           -0.367404      0.086588     -0.484454
H            -0.111249      0.047643     -0.436252
H            -0.418351      0.245192      0.297253
H             0.053486      0.201091      0.458909
H             0.382570      0.083237     -0.306526
O            -0.206112      0.088119      0.404264
O            -0.313372      0.247996     -0.348733
O             0.195469      0.243378     -0.401820
O             0.300643      0.103085      0.334434
O            -0.068329      0.074037     -0.346684
O            -0.460617      0.239063      0.394561
O             0.049355      0.233405      0.360559
O             0.423626      0.089738     -0.400981
Zn            0.154389      0.426194     -0.298668
Zn            0.387277     -0.412778     -0.488829
Fe           -0.136258     -0.416872      0.283274
Fe           -0.352369      0.437451     -0.464483
H            -0.075856      0.393013     -0.445302
H            -0.406097     -0.429462      0.298828
H             0.090328     -0.419861      0.458402
H             0.410674      0.409543     -0.286508
O            -0.192427      0.398949      0.410971
O            -0.297460     -0.400715     -0.339309
O             0.194700     -0.395947     -0.418860
O             0.307526      0.416887      0.343963
O            -0.054650      0.405487     -0.343281
O            -0.439858     -0.416415      0.396727
O             0.054250     -0.416782      0.359385
O             0.444755      0.409366     -0.387398
H             0.224559     -0.271745      0.414398
H             0.040458      0.344405     -0.118186
data_nwchem_pspw

_audit_creation_date   Mon Feb 13 22:54:42 2023
_audit_creation_method    generated by PSPW module of NWChem


_cell_length_a            10.0667
_cell_length_b             9.1552
_cell_length_c             9.2041
_cell_angle_alpha         90.0000
_cell_angle_beta          90.0000
_cell_angle_gamma         90.0000

_symmetry_space_group_name_H-M     P1  

loop_
_atom_site_type_symbol
_atom_site_fract_x
_atom_site_fract_y
_atom_site_fract_z
Fe            0.147324     -0.263015      0.200519
Fe            0.351262     -0.080803     -0.021485
Fe           -0.149036     -0.065384     -0.236573
Fe           -0.336642     -0.242982      0.013250
H            -0.086627     -0.247247      0.040698
H            -0.428008     -0.060618     -0.199209
H             0.084219     -0.089534     -0.054595
H             0.447809     -0.242920      0.209699
O            -0.185755     -0.247632     -0.109571
O            -0.291894     -0.067968      0.136133
O             0.190742     -0.084976      0.098315
O             0.296611     -0.248420     -0.146535
O            -0.058293     -0.250414      0.137982
O            -0.447716     -0.083862     -0.100423
O             0.043851     -0.086171     -0.150743
O             0.447456     -0.228970      0.107595
Fe            0.137434      0.086750      0.240903
Fe            0.361009      0.255291     -0.010394
Fe           -0.160576      0.271607     -0.228092
Fe           -0.350353      0.090936      0.024588
H            -0.080747      0.078587      0.040712
H            -0.440752      0.253730     -0.201508
H             0.104606      0.255617     -0.019639
H             0.412776      0.079452      0.201084
O            -0.205574      0.088850     -0.099609
O            -0.313440      0.252946      0.162199
O             0.192533      0.247670      0.095345
O             0.313070      0.088134     -0.149091
O            -0.053657      0.085467      0.141637
O            -0.449936      0.255803     -0.096796
O             0.052630      0.265290     -0.118878
O             0.451766      0.074505      0.103721
Fe            0.144063      0.401013      0.248583
Fe            0.356786     -0.406669     -0.013025
Fe           -0.143868     -0.407036     -0.240460
Fe           -0.358273      0.415461      0.026998
H            -0.074534      0.439530      0.051507
H            -0.405988     -0.413080     -0.198111
H             0.081605     -0.423368     -0.052549
H             0.393633      0.404164      0.215867
O            -0.204548      0.434315     -0.094748
O            -0.308484     -0.413364      0.148170
O             0.184458     -0.426214      0.075444
O             0.321908      0.425853     -0.156680
O            -0.053388      0.409305      0.149539
O            -0.443249     -0.420677     -0.100671
O             0.052667     -0.416653     -0.154479
O             0.443630      0.398254      0.123800
Fe            0.141737     -0.259334     -0.272076
Fe            0.368774     -0.071289      0.481325
Fe           -0.151069     -0.070900      0.263757
Fe           -0.350115     -0.258091     -0.480491
H            -0.070400     -0.242094     -0.467356
H            -0.422590     -0.081171      0.285247
H             0.093017     -0.072661      0.450989
H             0.439341     -0.241879     -0.284225
O            -0.204489     -0.243916      0.382424
O            -0.304800     -0.093428     -0.358064
O             0.195289     -0.088321     -0.401415
O             0.289241     -0.250558      0.363132
O            -0.049772     -0.251085     -0.366903
O            -0.452426     -0.091300      0.384160
O             0.050045     -0.083379      0.354919
O             0.451756     -0.248179     -0.387865
Fe            0.157667      0.070134     -0.263125
Fe            0.347817      0.246383      0.498083
Fe           -0.149088      0.247870      0.265933
Fe           -0.342316      0.073935     -0.475728
H            -0.072170      0.094896     -0.447646
H            -0.420738      0.216023      0.291812
H             0.067961      0.247217      0.460807
H             0.429096      0.088136     -0.301299
O            -0.199910      0.093780      0.396086
O            -0.306289      0.245663     -0.357381
O             0.189778      0.232514     -0.400284
O             0.303855      0.075799      0.342169
O            -0.057995      0.092977     -0.343865
O            -0.445902      0.223842      0.392422
O             0.036256      0.250307      0.362958
O             0.460764      0.073782     -0.400256
Zn            0.153850      0.422591     -0.301201
Zn            0.370273     -0.427687     -0.488746
Fe           -0.155184     -0.424706      0.279922
Fe           -0.366554      0.409242     -0.488731
H            -0.114489      0.405780     -0.454790
H            -0.420444     -0.399900      0.287273
H             0.094795     -0.410616      0.435661
H             0.400174      0.410495     -0.219892
O            -0.198077      0.417267      0.404757
O            -0.294628     -0.419419     -0.356361
O             0.175339     -0.411079     -0.422936
O             0.298662      0.399980      0.356347
O            -0.068894      0.410186     -0.360738
O            -0.445679     -0.416269      0.386437
O             0.066750     -0.413202      0.329165
O             0.462503      0.388392     -0.390447
H             0.220355     -0.274902      0.431093
H             0.014000      0.359792     -0.113245
data_nwchem_pspw

_audit_creation_date   Tue Feb 14 00:55:12 2023
_audit_creation_method    generated by PSPW module of NWChem


_cell_length_a            10.0667
_cell_length_b             9.1552
_cell_length_c             9.2041
_cell_angle_alpha         90.0000
_cell_angle_beta          90.0000
_cell_angle_gamma         90.0000

_symmetry_space_group_name_H-M     P1  

loop_
_atom_site_type_symbol
_atom_site_fract_x
_atom_site_fract_y
_atom_site_fract_z
Fe            0.130649     -0.258640      0.204171
Fe            0.352603     -0.087357     -0.040514
Fe           -0.147327     -0.088284     -0.229118
Fe           -0.354328     -0.255383      0.026325
H            -0.093582     -0.230614      0.026960
H            -0.423826     -0.074237     -0.194075
H             0.092303     -0.084267     -0.044548
H             0.408254     -0.270215      0.185528
O            -0.206139     -0.261895     -0.097082
O            -0.293389     -0.089151      0.149580
O             0.212783     -0.089662      0.104075
O             0.299530     -0.249606     -0.159576
O            -0.057821     -0.239551      0.125615
O            -0.454900     -0.083491     -0.094976
O             0.066558     -0.077097     -0.145532
O             0.448116     -0.274921      0.091197
Fe            0.151302      0.075159      0.223796
Fe            0.343803      0.238561     -0.018055
Fe           -0.158431      0.258231     -0.203945
Fe           -0.356284      0.075704      0.036632
H            -0.062028      0.076407      0.044152
H            -0.433968      0.256968     -0.190068
H             0.090513      0.261886     -0.023355
H             0.426274      0.064182      0.204986
O            -0.203147      0.064485     -0.091840
O            -0.300038      0.263390      0.170440
O             0.190559      0.249537      0.102748
O             0.294646      0.077421     -0.141190
O            -0.051256      0.081533      0.149054
O            -0.447046      0.255267     -0.086361
O             0.032847      0.292469     -0.098151
O             0.468267      0.065046      0.111309
Fe            0.150397      0.411003      0.231678
Fe            0.363307     -0.432730     -0.038565
Fe           -0.143903     -0.412619     -0.231218
Fe           -0.358484      0.417519      0.039215
H            -0.105281      0.441048      0.050526
H            -0.432977     -0.423215     -0.203978
H             0.071748     -0.405953     -0.049181
H             0.405154      0.415524      0.215974
O            -0.210238      0.421744     -0.091801
O            -0.315912     -0.405858      0.172725
O             0.210010     -0.423716      0.087391
O             0.303008      0.405226     -0.145121
O            -0.065322      0.433349      0.147584
O            -0.452573     -0.411419     -0.101718
O             0.049906     -0.418047     -0.149802
O             0.442302      0.399880      0.116577
Fe            0.141752     -0.237130     -0.287478
Fe            0.359239     -0.092647      0.471184
Fe           -0.135160     -0.074025      0.267583
Fe           -0.344986     -0.249746     -0.485678
H            -0.096625     -0.235992     -0.460886
H            -0.409614     -0.077481      0.305599
H             0.086871     -0.085396      0.444588
H             0.426540     -0.247405     -0.297779
O            -0.185319     -0.225814      0.395117
O            -0.297121     -0.090682     -0.354453
O             0.190777     -0.075468     -0.414095
O             0.285092     -0.257028      0.344739
O            -0.062521     -0.232777     -0.360783
O            -0.442742     -0.084810      0.404455
O             0.057889     -0.086566      0.343209
O             0.459241     -0.249582     -0.397146
Fe            0.140888      0.081046     -0.281016
Fe            0.355780      0.247959      0.476026
Fe           -0.140337      0.269433      0.273066
Fe           -0.341632      0.084387     -0.473867
H            -0.056606      0.101480     -0.444458
H            -0.423771      0.256362      0.305356
H             0.087522      0.264126      0.446160
H             0.399261      0.068004     -0.307018
O            -0.201359      0.107436      0.394699
O            -0.309033      0.254315     -0.350340
O             0.189939      0.247338     -0.401366
O             0.299196      0.081079      0.354189
O            -0.058545      0.086879     -0.340416
O            -0.456347      0.235734      0.404250
O             0.046814      0.254202      0.347956
O             0.446143      0.086726     -0.396121
Zn            0.154091      0.421369     -0.299711
Zn            0.371525     -0.423977     -0.485747
Fe           -0.154090     -0.399920      0.277382
Fe           -0.357956      0.418857     -0.479439
H            -0.078399      0.403529     -0.450637
H            -0.423433     -0.427051      0.292136
H             0.089026     -0.390406      0.448357
H             0.397370      0.383055     -0.286202
O            -0.193328      0.427872      0.396549
O            -0.300080     -0.419778     -0.354110
O             0.190610     -0.397258     -0.419198
O             0.316014      0.410511      0.354470
O            -0.058713      0.405659     -0.347743
O            -0.435597     -0.418277      0.397297
O             0.057859     -0.410297      0.346771
O             0.440220      0.405249     -0.381304
H             0.235702     -0.320448      0.407400
H             0.028948      0.392936     -0.080738
data_nwchem_pspw

_audit_creation_date   Tue Feb 14 02:55:29 2023
_audit_creation_method    generated by PSPW module of NWChem


_cell_length_a            10.0667
_cell_length_b             9.1552
_cell_length_c             9.2041
_cell_angle_alpha         90.0000
_cell_angle_beta          90.0000
_cell_angle_gamma         90.0000

_symmetry_space_group_name_H-M     P1  

loop_
_atom_site_type_symbol
_atom_site_fract_x
_atom_site_fract_y
_atom_site_fract_z
Fe            0.149887     -0.234246      0.214947
Fe            0.356784     -0.065799     -0.033074
Fe           -0.145048     -0.081719     -0.217685
Fe           -0.345717     -0.239990      0.010719
H            -0.085450     -0.245327      0.045774
H            -0.406412     -0.084102     -0.210462
H             0.067093     -0.054202     -0.033292
H             0.462182     -0.230969      0.179426
O            -0.186741     -0.243116     -0.084359
O            -0.320332     -0.078228      0.155115
O             0.203675     -0.072838      0.089416
O             0.293484     -0.233953     -0.151251
O            -0.037872     -0.244459      0.138734
O            -0.443414     -0.071648     -0.112779
O             0.055730     -0.054721     -0.137965
O             0.457684     -0.240991      0.076278
Fe            0.149891      0.087546      0.229254
Fe            0.356311      0.256302     -0.030108
Fe           -0.146724      0.238402     -0.217127
Fe           -0.359116      0.095915      0.036300
H            -0.078286      0.088056      0.062007
H            -0.403707      0.252414     -0.200083
H             0.118344      0.263127      0.030350
H             0.421968      0.070197      0.204559
O            -0.189791      0.074570     -0.078565
O            -0.292072      0.271611      0.150982
O             0.193336      0.252308      0.092497
O             0.317812      0.095673     -0.156974
O            -0.044260      0.084950      0.158069
O            -0.438196      0.257532     -0.101165
O             0.030410      0.269780     -0.125786
O             0.452537      0.081469      0.106288
Fe            0.141456      0.417302      0.241971
Fe            0.345514     -0.412170     -0.038136
Fe           -0.142986     -0.412979     -0.223186
Fe           -0.362667      0.431909      0.014331
H            -0.075176      0.420419      0.041153
H            -0.442791     -0.418566     -0.218969
H             0.083633     -0.431242     -0.059051
H             0.402686      0.422153      0.195569
O            -0.205027      0.431340     -0.102277
O            -0.299660     -0.412903      0.134551
O             0.219179     -0.414065      0.110738
O             0.298077      0.419442     -0.155586
O            -0.049366      0.418422      0.139475
O            -0.456514     -0.403728     -0.117379
O             0.062332     -0.419681     -0.158675
O             0.431698      0.423103      0.093189
Fe            0.144296     -0.233657     -0.272497
Fe            0.355721     -0.082585      0.497766
Fe           -0.154295     -0.093502      0.264920
Fe           -0.355745     -0.271316     -0.474877
H            -0.066915     -0.246437     -0.449995
H            -0.430099     -0.112664      0.291384
H             0.091175     -0.089455      0.450088
H             0.429951     -0.249582     -0.291229
O            -0.205073     -0.253599      0.392784
O            -0.298141     -0.105496     -0.350635
O             0.188861     -0.071887     -0.399808
O             0.286651     -0.250482      0.364638
O            -0.050731     -0.255949     -0.348530
O            -0.457071     -0.107098      0.391703
O             0.062452     -0.090700      0.349292
O             0.444980     -0.248398     -0.393779
Fe            0.151094      0.095081     -0.268750
Fe            0.355445      0.243901      0.474126
Fe           -0.146807      0.255911      0.283655
Fe           -0.345949      0.064234     -0.478893
H            -0.076086      0.093623     -0.452549
H            -0.394722      0.257251      0.298930
H             0.085488      0.230929      0.460929
H             0.439099      0.081645     -0.290415
O            -0.190836      0.077546      0.397625
O            -0.294316      0.223637     -0.348236
O             0.190607      0.232965     -0.408195
O             0.303227      0.081413      0.358957
O            -0.062412      0.083520     -0.347702
O            -0.436869      0.223884      0.388927
O             0.048841      0.235124      0.361674
O             0.456515      0.061414     -0.391449
Zn            0.135750      0.408785     -0.300470
Zn            0.355424     -0.428377     -0.488502
Fe           -0.151034     -0.422437      0.256562
Fe           -0.347472      0.394945     -0.481662
H            -0.101116      0.408470     -0.441333
H            -0.423117     -0.424817      0.303126
H             0.089267     -0.415128      0.456277
H             0.411038      0.388243     -0.294132
O            -0.193989      0.419858      0.413954
O            -0.301848     -0.427615     -0.351240
O             0.185629     -0.389893     -0.409775
O             0.303425      0.391950      0.340070
O            -0.060176      0.412746     -0.346623
O            -0.445992     -0.442154      0.403849
O             0.054080     -0.416355      0.353036
O             0.453966      0.394988     -0.389161
H             0.222172     -0.296097      0.429212
H             0.040190      0.374680     -0.117711
data_nwchem_pspw

_audit_creation_date   Tue Feb 14 04:55:18 2023
_audit_creation_method    generated by PSPW module of NWChem


_cell_length_a            10.0667
_cell_length_b             9.1552
_cell_length_c             9.2041
_cell_angle_alpha         90.0000
_cell_angle_beta          90.0000
_cell_angle_gamma         90.0000

_symmetry_space_group_name_H-M     P1  

loop_
_atom_site_type_symbol
_atom_site_fract_x
_atom_site_fract_y
_atom_site_fract_z
Fe            0.139553     -0.257346      0.227927
Fe            0.350410     -0.105092     -0.000731
Fe           -0.150722     -0.081004     -0.230199
Fe           -0.365236     -0.260085      0.029145
H            -0.061787     -0.242434      0.049970
H            -0.441299     -0.084867     -0.197656
H             0.086861     -0.074384     -0.055057
H             0.428931     -0.283029      0.219753
O            -0.212415     -0.246853     -0.103498
O            -0.299144     -0.085296      0.160704
O             0.189478     -0.081656      0.114615
O             0.301655     -0.263137     -0.149075
O            -0.048628     -0.245421      0.152631
O            -0.444239     -0.091449     -0.093739
O             0.063463     -0.077230     -0.156600
O             0.443994     -0.264958      0.118497
Fe            0.142594      0.083645      0.239378
Fe            0.362027      0.228072     -0.036020
Fe           -0.150779      0.261449     -0.231066
Fe           -0.345661      0.082227      0.034778
H            -0.088552      0.079792      0.047302
H            -0.396820      0.247493     -0.200218
H             0.119389      0.230321      0.027216
H             0.403485      0.074664      0.206957
O            -0.191010      0.075083     -0.089228
O            -0.294494      0.249066      0.146383
O             0.195487      0.242342      0.094656
O             0.294600      0.058464     -0.137464
O            -0.043885      0.088980      0.144057
O            -0.446036      0.240890     -0.104877
O             0.034916      0.224057     -0.126340
O             0.442770      0.062423      0.110489
Fe            0.131773      0.411547      0.231438
Fe            0.333183     -0.437777     -0.021032
Fe           -0.147079     -0.405134     -0.232521
Fe           -0.354360      0.410298      0.001461
H            -0.089998      0.413294      0.048436
H            -0.409281     -0.414549     -0.211684
H             0.055092     -0.417736     -0.037581
H             0.399013      0.401628      0.202874
O            -0.198438      0.418072     -0.111371
O            -0.290833     -0.410510      0.144797
O             0.180447     -0.432898      0.094324
O             0.314824      0.401587     -0.161181
O            -0.061463      0.416886      0.147812
O            -0.450104     -0.422422     -0.115521
O             0.033888     -0.407517     -0.139223
O             0.439514      0.410989      0.104465
Fe            0.144759     -0.246312     -0.267397
Fe            0.366366     -0.071664      0.483293
Fe           -0.138386     -0.085979      0.261620
Fe           -0.348109     -0.239606     -0.482501
H            -0.054840     -0.237512     -0.452956
H            -0.397447     -0.071318      0.306540
H             0.088432     -0.069608      0.468301
H             0.432864     -0.212900     -0.280466
O            -0.200560     -0.246568      0.398794
O            -0.296223     -0.073004     -0.356221
O             0.206566     -0.074726     -0.398649
O             0.289259     -0.252330      0.364246
O            -0.046250     -0.244158     -0.350473
O            -0.444203     -0.085502      0.401124
O             0.058545     -0.084713      0.370556
O             0.464606     -0.233975     -0.376860
Fe            0.151935      0.099573     -0.290359
Fe            0.362584      0.260220      0.456948
Fe           -0.140104      0.237364      0.273341
Fe           -0.354124      0.096796     -0.484495
H            -0.078253      0.058211     -0.436797
H            -0.417345      0.253696      0.278966
H             0.089864      0.276995      0.456420
H             0.436564      0.093638     -0.303095
O            -0.199295      0.071591      0.397055
O            -0.313201      0.254067     -0.342821
O             0.206251      0.266735     -0.415880
O             0.297631      0.093086      0.358877
O            -0.051829      0.101313     -0.344721
O            -0.450927      0.269111      0.377201
O             0.050580      0.271515      0.359507
O             0.451801      0.095199     -0.405946
Zn            0.154294      0.435024     -0.301235
Zn            0.378108     -0.424019     -0.485991
Fe           -0.157129     -0.423255      0.285686
Fe           -0.355874      0.426081     -0.486033
H            -0.103283      0.425439     -0.452459
H            -0.433476     -0.428687      0.286008
H             0.080366     -0.411516      0.469855
H             0.414195      0.396665     -0.289690
O            -0.196039      0.406040      0.418937
O            -0.301191     -0.417868     -0.362172
O             0.189564     -0.383503     -0.410253
O             0.290284      0.388844      0.327579
O            -0.053115      0.442977     -0.361126
O            -0.451093     -0.415250      0.388380
O             0.045612     -0.408681      0.372010
O             0.458639      0.413839     -0.386072
H             0.227276     -0.285238      0.442143
H             0.075716      0.318038     -0.130470
data_nwchem_pspw

_audit_creation_date   Tue Feb 14 06:55:05 2023
_audit_creation_method    generated by PSPW module of NWChem


_cell_length_a            10.0667
_cell_length_b             9.1552
_cell_length_c             9.2041
_cell_angle_alpha         90.0000
_cell_angle_beta          90.0000
_cell_angle_gamma         90.0000

_symmetry_space_group_name_H-M     P1  

loop_
_atom_site_type_symbol
_atom_site_fract_x
_atom_site_fract_y
_atom_site_fract_z
Fe            0.123975     -0.245579      0.200267
Fe            0.359300     -0.080220     -0.022102
Fe           -0.142181     -0.106621     -0.206381
Fe           -0.356603     -0.244371      0.023525
H            -0.106607     -0.254792      0.049645
H            -0.424023     -0.081094     -0.204137
H             0.087247     -0.083628     -0.054375
H             0.441086     -0.251238      0.193859
O            -0.186665     -0.255229     -0.075879
O            -0.312010     -0.070533      0.165095
O             0.208217     -0.084624      0.100578
O             0.306137     -0.239607     -0.148762
O            -0.072931     -0.261050      0.152348
O            -0.435134     -0.082739     -0.100921
O             0.051285     -0.091056     -0.151233
O             0.447854     -0.263841      0.091494
Fe            0.149150      0.086785      0.235074
Fe            0.351971      0.255386     -0.059352
Fe           -0.146017      0.239453     -0.222853
Fe           -0.353042      0.089387      0.030326
H            -0.092076      0.055159      0.042911
H            -0.406810      0.239468     -0.203586
H             0.119870      0.220569      0.023889
H             0.430914      0.111138      0.189720
O            -0.203223      0.073965     -0.092639
O            -0.306978      0.256771      0.144593
O             0.195680      0.253034      0.084503
O             0.301351      0.081651     -0.147826
O            -0.056671      0.077652      0.137805
O            -0.446843      0.252470     -0.107181
O             0.040644      0.248551     -0.144920
O             0.453253      0.081024      0.092988
Fe            0.152981      0.423367      0.214955
Fe            0.351586     -0.402703     -0.037527
Fe           -0.140390     -0.430889     -0.216942
Fe           -0.364200      0.418003      0.023107
H            -0.092922      0.395372      0.041836
H            -0.405835     -0.427074     -0.209163
H             0.091189     -0.421855     -0.051150
H             0.418177      0.412882      0.191044
O            -0.197605      0.406648     -0.097691
O            -0.323435     -0.409165      0.154964
O             0.192544     -0.404064      0.080041
O             0.315732      0.425512     -0.175022
O            -0.059558      0.415096      0.140331
O            -0.440545     -0.418909     -0.109369
O             0.059387     -0.427714     -0.151965
O             0.432931      0.418798      0.085413
Fe            0.142979     -0.239972     -0.271647
Fe            0.367904     -0.074822      0.483026
Fe           -0.154559     -0.086261      0.274549
Fe           -0.339292     -0.261417     -0.458043
H            -0.080340     -0.249727     -0.441126
H            -0.400917     -0.099136      0.310386
H             0.039102     -0.082326      0.447676
H             0.428922     -0.241731     -0.291475
O            -0.183463     -0.250653      0.413490
O            -0.284247     -0.095058     -0.342053
O             0.205912     -0.085943     -0.393467
O             0.275720     -0.244986      0.354095
O            -0.051433     -0.262207     -0.340610
O            -0.430000     -0.101324      0.411035
O             0.042966     -0.071704      0.343968
O             0.467484     -0.249616     -0.386468
Fe            0.144551      0.087265     -0.273629
Fe            0.345727      0.253139      0.465308
Fe           -0.154702      0.250368      0.274570
Fe           -0.349284      0.077280     -0.467744
H            -0.069787      0.084060     -0.452750
H            -0.411300      0.255253      0.300520
H             0.079652      0.268266      0.431999
H             0.394957      0.083387     -0.299350
O            -0.194136      0.087217      0.402065
O            -0.297340      0.234576     -0.336744
O             0.180188      0.236974     -0.417759
O             0.303445      0.082429      0.348653
O            -0.052713      0.063654     -0.351003
O            -0.440072      0.226015      0.395914
O             0.049605      0.253134      0.332795
O             0.440666      0.090282     -0.391448
Zn            0.150099      0.447986     -0.297467
Zn            0.379086     -0.411771      0.486040
Fe           -0.160409     -0.414000      0.282727
Fe           -0.362849      0.402128     -0.452175
H            -0.105682      0.410733     -0.452663
H            -0.396496     -0.398065      0.320611
H             0.090566     -0.405413      0.450023
H             0.410898      0.401568     -0.299931
O            -0.206824      0.414583      0.412174
O            -0.297280     -0.432086     -0.336489
O             0.216921     -0.387000     -0.405066
O             0.311795      0.414148      0.340342
O            -0.059839      0.401866     -0.357736
O            -0.437498     -0.411650      0.412450
O             0.051496     -0.413128      0.353230
O             0.443104      0.391354     -0.405950
H             0.211021     -0.264250      0.430010
H             0.061106      0.345645     -0.115490
data_nwchem_pspw

_audit_creation_date   Tue Feb 14 08:55:29 2023
_audit_creation_method    generated by PSPW module of NWChem


_cell_length_a            10.0667
_cell_length_b             9.1552
_cell_length_c             9.2041
_cell_angle_alpha         90.0000
_cell_angle_beta          90.0000
_cell_angle_gamma         90.0000

_symmetry_space_group_name_H-M     P1  

loop_
_atom_site_type_symbol
_atom_site_fract_x
_atom_site_fract_y
_atom_site_fract_z
Fe            0.139798     -0.281976      0.205463
Fe            0.351047     -0.080607     -0.003941
Fe           -0.161644     -0.090876     -0.215913
Fe           -0.356906     -0.249334      0.022622
H            -0.059732     -0.232108      0.035636
H            -0.434399     -0.083290     -0.187717
H             0.083727     -0.064955     -0.048062
H             0.431484     -0.274002      0.202916
O            -0.202987     -0.251963     -0.106872
O            -0.294121     -0.074409      0.142828
O             0.184820     -0.076558      0.091161
O             0.302463     -0.255224     -0.144039
O            -0.054758     -0.245029      0.139882
O            -0.452757     -0.074483     -0.084895
O             0.040547     -0.077707     -0.142727
O             0.451686     -0.251129      0.104533
Fe            0.140600      0.066685      0.243663
Fe            0.348720      0.249844     -0.022763
Fe           -0.150077      0.253114     -0.241611
Fe           -0.352447      0.087020      0.015209
H            -0.091354      0.072840      0.056865
H            -0.414363      0.271504     -0.207689
H             0.112420      0.221170      0.019775
H             0.423749      0.091072      0.205580
O            -0.202817      0.094822     -0.105335
O            -0.305448      0.249742      0.151775
O             0.187056      0.227935      0.095380
O             0.304656      0.083880     -0.141075
O            -0.050032      0.086352      0.151558
O            -0.451695      0.263310     -0.110637
O             0.031283      0.241817     -0.127629
O             0.449603      0.074195      0.106139
Fe            0.131651      0.406850      0.244234
Fe            0.352212     -0.425363     -0.016158
Fe           -0.141260     -0.417341     -0.235764
Fe           -0.353580      0.421818      0.028210
H            -0.105028      0.402669      0.046963
H            -0.403891     -0.442180     -0.192284
H             0.060465     -0.418838     -0.058167
H             0.417817      0.406687      0.203592
O            -0.206534      0.423013     -0.104499
O            -0.289649     -0.410664      0.150569
O             0.192818     -0.444407      0.097886
O             0.303014      0.416142     -0.155177
O            -0.055023      0.400536      0.138551
O            -0.439430     -0.413422     -0.098799
O             0.059265     -0.414369     -0.163008
O             0.445708      0.407265      0.100302
Fe            0.150011     -0.240933     -0.268503
Fe            0.370317     -0.061278      0.494974
Fe           -0.146722     -0.076443      0.276684
Fe           -0.346293     -0.249663     -0.472388
H            -0.068042     -0.238000     -0.457017
H            -0.416843     -0.083326      0.299828
H             0.037729     -0.089286      0.463357
H             0.434212     -0.254581     -0.304739
O            -0.202132     -0.252205      0.393539
O            -0.306842     -0.079935     -0.345456
O             0.205313     -0.070412     -0.400669
O             0.286623     -0.221935      0.346486
O            -0.045886     -0.241078     -0.354874
O            -0.446427     -0.088661      0.398627
O             0.045038     -0.106151      0.360532
O             0.473391     -0.236538     -0.397892
Fe            0.153298      0.084991     -0.262360
Fe            0.359011      0.261471      0.466355
Fe           -0.150360      0.251169      0.268607
Fe           -0.343585      0.082852     -0.475863
H            -0.059385      0.097614     -0.447138
H            -0.401895      0.251945      0.294194
H             0.103769      0.216791      0.456262
H             0.423214      0.106834     -0.291542
O            -0.187468      0.089558      0.399385
O            -0.310172      0.258528     -0.361587
O             0.210803      0.231841     -0.394765
O             0.302142      0.080501      0.353844
O            -0.046422      0.086409     -0.345790
O            -0.453618      0.233631      0.384991
O             0.051141      0.227325      0.368402
O             0.460646      0.096781     -0.388170
Zn            0.144238      0.412500     -0.298481
Zn            0.367211     -0.409081      0.487768
Fe           -0.142288     -0.419324      0.270675
Fe           -0.355441      0.411667     -0.497057
H            -0.089805      0.420080     -0.457837
H            -0.405383     -0.391180      0.299984
H             0.122171     -0.403663      0.493690
H             0.414074      0.420722     -0.288720
O            -0.196378      0.421945      0.398121
O            -0.300193     -0.426870     -0.350397
O             0.189087     -0.396728     -0.428388
O             0.307975      0.409232      0.331481
O            -0.058170      0.417207     -0.357910
O            -0.439635     -0.400259      0.396956
O             0.042367     -0.427013      0.344429
O             0.449319      0.441296     -0.386858
H             0.214679     -0.177865      0.400615
H             0.042974      0.342271     -0.103502
data_nwchem_pspw

_audit_creation_date   Tue Feb 14 10:55:07 2023
_audit_creation_method    generated by PSPW module of NWChem


_cell_length_a            10.0667
_cell_length_b             9.1552
_cell_length_c             9.2041
_cell_angle_alpha         90.0000
_cell_angle_beta          90.0000
_cell_angle_gamma         90.0000

_symmetry_space_group_name_H-M     P1  

loop_
_atom_site_type_symbol
_atom_site_fract_x
_atom_site_fract_y
_atom_site_fract_z
Fe            0.138626     -0.246053      0.200222
Fe            0.355075     -0.086906     -0.037396
Fe           -0.149007     -0.076799     -0.229479
Fe           -0.360650     -0.260382      0.014714
H            -0.083869     -0.233529      0.034727
H            -0.410115     -0.083326     -0.194279
H             0.093989     -0.063006     -0.054678
H             0.413421     -0.272195      0.197961
O            -0.194377     -0.253956     -0.106228
O            -0.292409     -0.084031      0.136508
O             0.190374     -0.077821      0.074083
O             0.302543     -0.253909     -0.148417
O            -0.042380     -0.245369      0.130402
O            -0.456706     -0.079738     -0.102698
O             0.059209     -0.068125     -0.154776
O             0.440586     -0.250882      0.101167
Fe            0.147248      0.078943      0.228681
Fe            0.361414      0.243576     -0.018989
Fe           -0.153603      0.235687     -0.229337
Fe           -0.361565      0.080167      0.020538
H            -0.076297      0.089119      0.045284
H            -0.407521      0.258339     -0.206401
H             0.114594      0.245981      0.025377
H             0.421996      0.062035      0.214797
O            -0.202822      0.068690     -0.108839
O            -0.301930      0.239986      0.141538
O             0.185705      0.257749      0.093359
O             0.297068      0.086968     -0.151663
O            -0.043942      0.088403      0.145578
O            -0.441809      0.252071     -0.106996
O             0.024275      0.210645     -0.121612
O             0.445104      0.076487      0.112734
Fe            0.141721      0.424651      0.259593
Fe            0.347642     -0.429036     -0.025895
Fe           -0.146402     -0.422365     -0.214896
Fe           -0.351843      0.414479      0.019251
H            -0.068780      0.445325      0.063387
H            -0.408569     -0.446585     -0.219131
H             0.108530     -0.414923     -0.052430
H             0.415057      0.408083      0.210596
O            -0.200899      0.411620     -0.099208
O            -0.291216     -0.415455      0.142843
O             0.215125     -0.417311      0.111438
O             0.294126      0.405521     -0.157178
O            -0.045858      0.418125      0.161748
O            -0.439095     -0.432469     -0.114243
O             0.053564     -0.439726     -0.133862
O             0.461381      0.396957      0.118451
Fe            0.143706     -0.224466     -0.267309
Fe            0.357111     -0.063616      0.480401
Fe           -0.141475     -0.091082      0.268946
Fe           -0.342578     -0.267454     -0.487608
H            -0.084602     -0.244171     -0.454731
H            -0.415234     -0.088464      0.285601
H             0.080074     -0.066047      0.449150
H             0.419795     -0.232796     -0.312299
O            -0.178546     -0.263657      0.413552
O            -0.293452     -0.091006     -0.354586
O             0.208067     -0.067535     -0.398267
O             0.286862     -0.231255      0.355555
O            -0.051375     -0.247612     -0.352614
O            -0.438291     -0.090500      0.387728
O             0.052251     -0.072616      0.350353
O             0.455792     -0.223999     -0.407578
Fe            0.140545      0.100459     -0.273885
Fe            0.351870      0.263805      0.489238
Fe           -0.157840      0.254430      0.271142
Fe           -0.348464      0.058431     -0.485919
H            -0.083066      0.098305     -0.453503
H            -0.435107      0.274768      0.313493
H             0.082998      0.248400      0.454474
H             0.405683      0.080196     -0.291078
O            -0.195807      0.089306      0.404452
O            -0.306835      0.237457     -0.353173
O             0.192495      0.259591     -0.399875
O             0.312321      0.095602      0.345369
O            -0.051578      0.088792     -0.352023
O            -0.448937      0.248363      0.414168
O             0.044968      0.248071      0.356894
O             0.447522      0.092679     -0.386216
Zn            0.143399      0.447738     -0.299052
Zn            0.367539     -0.414344      0.486048
Fe           -0.137894     -0.419068      0.288819
Fe           -0.358311      0.401536     -0.464174
H            -0.074687      0.406633     -0.455661
H            -0.404751     -0.452846      0.299099
H             0.091235     -0.393309      0.471849
H             0.414201      0.389077     -0.281398
O            -0.207472      0.416488      0.403301
O            -0.300780     -0.429825     -0.334292
O             0.198970     -0.378112     -0.420880
O             0.302959      0.403585      0.356913
O            -0.048575      0.420821     -0.354320
O            -0.440692     -0.434118      0.395364
O             0.054267     -0.408515      0.368677
O             0.441378      0.413969     -0.377765
H             0.224316     -0.238541      0.434895
H             0.051819      0.310553     -0.120975
data_nwchem_pspw

_audit_creation_date   Tue Feb 14 13:14:43 2023
_audit_creation_method    generated by PSPW module of NWChem


_cell_length_a            10.0667
_cell_length_b             9.1552
_cell_length_c             9.2041
_cell_angle_alpha         90.0000
_cell_angle_beta          90.0000
_cell_angle_gamma         90.0000

_symmetry_space_group_name_H-M     P1  

loop_
_atom_site_type_symbol
_atom_site_fract_x
_atom_site_fract_y
_atom_site_fract_z
Fe            0.132825     -0.250413      0.186411
Fe            0.364005     -0.089524     -0.033716
Fe           -0.144738     -0.071745     -0.222575
Fe           -0.350371     -0.240141      0.038023
H            -0.116434     -0.248869      0.043918
H            -0.408344     -0.097897     -0.204686
H             0.079091     -0.068163     -0.047175
H             0.434037     -0.238652      0.207155
O            -0.199185     -0.247057     -0.100559
O            -0.310489     -0.069123      0.154269
O             0.210092     -0.083284      0.086140
O             0.298196     -0.259170     -0.143701
O            -0.068995     -0.243601      0.135589
O            -0.439240     -0.075140     -0.106782
O             0.039991     -0.076666     -0.139522
O             0.450800     -0.264901      0.108639
Fe            0.154431      0.073616      0.232221
Fe            0.350858      0.243437     -0.029142
Fe           -0.152482      0.263699     -0.217561
Fe           -0.365938      0.096934      0.016999
H            -0.071747      0.102464      0.062308
H            -0.413551      0.258811     -0.212032
H             0.120274      0.243127      0.039200
H             0.415323      0.041360      0.193548
O            -0.205685      0.085155     -0.114829
O            -0.288961      0.250893      0.149066
O             0.196361      0.256363      0.103647
O             0.307862      0.075435     -0.174781
O            -0.047123      0.079435      0.159874
O            -0.452713      0.267838     -0.113335
O             0.034950      0.234784     -0.118212
O             0.448845      0.077095      0.100494
Fe            0.144361      0.427965      0.239242
Fe            0.346152     -0.428243     -0.024062
Fe           -0.138701     -0.413442     -0.219979
Fe           -0.349895      0.429856      0.026969
H            -0.078160      0.379127      0.054930
H            -0.413569     -0.407372     -0.188382
H             0.091531     -0.433146     -0.060624
H             0.417052      0.387460      0.202697
O            -0.196281      0.423659     -0.095547
O            -0.309680     -0.420190      0.173445
O             0.183956     -0.438946      0.080688
O             0.295330      0.409184     -0.153656
O            -0.054392      0.402979      0.154078
O            -0.441196     -0.397709     -0.088275
O             0.051003     -0.420232     -0.157275
O             0.445883      0.387204      0.100774
Fe            0.140001     -0.239825     -0.268361
Fe            0.357548     -0.076376      0.491327
Fe           -0.149964     -0.082367      0.261869
Fe           -0.345657     -0.252598     -0.476657
H            -0.095221     -0.238921     -0.445181
H            -0.420263     -0.080366      0.302706
H             0.079835     -0.099472      0.440929
H             0.427129     -0.239703     -0.287895
O            -0.191660     -0.238600      0.405740
O            -0.306824     -0.075158     -0.354472
O             0.190633     -0.083194     -0.412607
O             0.285749     -0.267406      0.338917
O            -0.056135     -0.234980     -0.347059
O            -0.450803     -0.100232      0.401287
O             0.050267     -0.092707      0.339355
O             0.436379     -0.239463     -0.391229
Fe            0.148632      0.080636     -0.276537
Fe            0.346096      0.248818      0.465969
Fe           -0.140453      0.250361      0.283414
Fe           -0.354667      0.081884     -0.476563
H            -0.070770      0.096697     -0.436632
H            -0.408966      0.236356      0.286385
H             0.093098      0.245780      0.453031
H             0.434252      0.077214     -0.294677
O            -0.193803      0.084068      0.415628
O            -0.310502      0.246733     -0.340713
O             0.189538      0.235827     -0.409276
O             0.304110      0.071279      0.342957
O            -0.050027      0.093923     -0.333271
O            -0.437255      0.246470      0.387283
O             0.062789      0.249428      0.352218
O             0.443595      0.087474     -0.398738
Zn            0.153048      0.412251     -0.299897
Zn            0.372939     -0.438498      0.487299
Fe           -0.143786     -0.417183      0.286911
Fe           -0.352196      0.419600     -0.470407
H            -0.078817      0.387734     -0.447955
H            -0.404634     -0.419837      0.310491
H             0.110388     -0.413397     -0.490807
H             0.415286      0.391054     -0.297997
O            -0.203061      0.413634      0.407742
O            -0.297459     -0.413745     -0.339968
O             0.184322     -0.411140     -0.423567
O             0.310335      0.406079      0.342578
O            -0.044425      0.413899     -0.355116
O            -0.444080     -0.408079      0.409114
O             0.041024     -0.415769      0.345388
O             0.450346      0.408086     -0.394239
H             0.220018     -0.281127      0.411687
H             0.076884      0.327357     -0.109985
data_nwchem_pspw

_audit_creation_date   Tue Feb 14 14:54:49 2023
_audit_creation_method    generated by PSPW module of NWChem


_cell_length_a            10.0667
_cell_length_b             9.1552
_cell_length_c             9.2041
_cell_angle_alpha         90.0000
_cell_angle_beta          90.0000
_cell_angle_gamma         90.0000

_symmetry_space_group_name_H-M     P1  

loop_
_atom_site_type_symbol
_atom_site_fract_x
_atom_site_fract_y
_atom_site_fract_z
Fe            0.148181     -0.255475      0.205469
Fe            0.347735     -0.075474     -0.010334
Fe           -0.160664     -0.082955     -0.231734
Fe           -0.355145     -0.248074      0.029784
H            -0.083774     -0.236770      0.039391
H            -0.435060     -0.087407     -0.200004
H             0.069859     -0.061972     -0.039925
H             0.427583     -0.277999      0.209483
O            -0.208487     -0.254901     -0.107611
O            -0.293613     -0.071527      0.146086
O             0.184691     -0.077876      0.102831
O             0.294903     -0.236660     -0.142215
O            -0.053914     -0.266334      0.134798
O            -0.460677     -0.077665     -0.098558
O             0.036435     -0.077954     -0.139558
O             0.443894     -0.240457      0.114129
Fe            0.144847      0.074247      0.248406
Fe            0.368200      0.264424     -0.022402
Fe           -0.146627      0.248133     -0.222441
Fe           -0.346644      0.076389      0.020540
H            -0.093521      0.064237      0.048990
H            -0.419073      0.285201     -0.206172
H             0.133773      0.223852      0.038277
H             0.428640      0.092755      0.205176
O            -0.199887      0.077575     -0.091593
O            -0.307745      0.262326      0.149183
O             0.208649      0.239114      0.105558
O             0.295707      0.093487     -0.143917
O            -0.051456      0.076161      0.144287
O            -0.436300      0.270921     -0.100129
O             0.042337      0.239935     -0.114234
O             0.453435      0.086360      0.104656
Fe            0.143457      0.418610      0.232461
Fe            0.361121     -0.419112     -0.035780
Fe           -0.156300     -0.425926     -0.239654
Fe           -0.355696      0.431249      0.027831
H            -0.081821      0.394381      0.038762
H            -0.428793     -0.403563     -0.197912
H             0.054234     -0.422540     -0.045672
H             0.401970      0.426192      0.198639
O            -0.202881      0.418331     -0.100672
O            -0.295185     -0.409616      0.157872
O             0.196231     -0.425650      0.097057
O             0.309591      0.414929     -0.165344
O            -0.052161      0.402938      0.137283
O            -0.453478     -0.412010     -0.096065
O             0.050149     -0.422546     -0.149913
O             0.441232      0.432794      0.098815
Fe            0.139845     -0.242643     -0.254023
Fe            0.368151     -0.088998      0.490537
Fe           -0.150601     -0.080974      0.272038
Fe           -0.357797     -0.250553     -0.467878
H            -0.077628     -0.247500     -0.455647
H            -0.416535     -0.104669      0.307530
H             0.068835     -0.085038      0.458760
H             0.408854     -0.242202     -0.290317
O            -0.205824     -0.253589      0.401466
O            -0.302170     -0.078315     -0.354319
O             0.216047     -0.078074     -0.390656
O             0.280630     -0.242929      0.364078
O            -0.057648     -0.240736     -0.353692
O            -0.445058     -0.087714      0.405226
O             0.047442     -0.083186      0.356710
O             0.442243     -0.265521     -0.387003
Fe            0.140341      0.088657     -0.271593
Fe            0.352575      0.238859      0.476522
Fe           -0.154861      0.245755      0.255780
Fe           -0.346981      0.087192     -0.478925
H            -0.078687      0.102237     -0.456075
H            -0.429503      0.246348      0.289414
H             0.083742      0.240606      0.454895
H             0.402355      0.073174     -0.303783
O            -0.193050      0.084936      0.390833
O            -0.311678      0.247316     -0.346064
O             0.192310      0.238852     -0.416709
O             0.310981      0.070095      0.345613
O            -0.051095      0.088038     -0.356179
O            -0.450418      0.258243      0.390619
O             0.060270      0.251724      0.352547
O             0.445869      0.093382     -0.395412
Zn            0.143590      0.432605     -0.299107
Zn            0.378118     -0.439237      0.486779
Fe           -0.136154     -0.417448      0.278876
Fe           -0.343501      0.412966     -0.485362
H            -0.060897      0.387507     -0.456323
H            -0.382755     -0.402437      0.309575
H             0.125145     -0.400239      0.497999
H             0.427314      0.377125     -0.303317
O            -0.194714      0.409255      0.388596
O            -0.308957     -0.415578     -0.350881
O             0.179321     -0.394075     -0.416197
O             0.312683      0.417048      0.339251
O            -0.052525      0.410840     -0.354685
O            -0.442654     -0.417010      0.393325
O             0.054601     -0.421295      0.325115
O             0.450696      0.400478     -0.401330
H             0.209920     -0.259898      0.431808
H             0.057724      0.341110     -0.096662
data_nwchem_pspw

_audit_creation_date   Tue Feb 14 19:38:53 2023
_audit_creation_method    generated by PSPW module of NWChem


_cell_length_a            10.0667
_cell_length_b             9.1552
_cell_length_c             9.2041
_cell_angle_alpha         90.0000
_cell_angle_beta          90.0000
_cell_angle_gamma         90.0000

_symmetry_space_group_name_H-M     P1  

loop_
_atom_site_type_symbol
_atom_site_fract_x
_atom_site_fract_y
_atom_site_fract_z
Fe            0.131268     -0.246349      0.212518
Fe            0.358037     -0.082904     -0.028404
Fe           -0.146622     -0.082795     -0.222952
Fe           -0.356287     -0.274372      0.029569
H            -0.109802     -0.251621      0.055154
H            -0.433310     -0.072026     -0.203199
H             0.049453     -0.100171     -0.045909
H             0.419831     -0.265975      0.210072
O            -0.200816     -0.255383     -0.086562
O            -0.311838     -0.104666      0.155064
O             0.205102     -0.090016      0.098707
O             0.321062     -0.253035     -0.168093
O            -0.063155     -0.236513      0.149339
O            -0.450653     -0.104047     -0.106363
O             0.048887     -0.092232     -0.147298
O             0.445857     -0.257554      0.110258
Fe            0.148727      0.063723      0.239106
Fe            0.354521      0.250426     -0.030657
Fe           -0.159528      0.250371     -0.235750
Fe           -0.347396      0.062558      0.030290
H            -0.069415      0.089101      0.058594
H            -0.422162      0.250237     -0.213096
H             0.109432      0.232621      0.028499
H             0.411794      0.089895      0.195209
O            -0.205911      0.075888     -0.091647
O            -0.298025      0.248978      0.156366
O             0.189901      0.235188      0.093707
O             0.303303      0.093089     -0.151846
O            -0.053781      0.067994      0.158904
O            -0.446711      0.244532     -0.109982
O             0.029366      0.224017     -0.134385
O             0.446712      0.079897      0.097484
Fe            0.154797      0.424607      0.229914
Fe            0.354885     -0.417943     -0.035936
Fe           -0.147181     -0.408535     -0.204503
Fe           -0.352268      0.392785      0.020259
H            -0.090432      0.397046      0.048916
H            -0.412308     -0.447138     -0.204923
H             0.100691     -0.407415     -0.051639
H             0.409627      0.421488      0.196286
O            -0.188817      0.416002     -0.099307
O            -0.304437     -0.430318      0.149226
O             0.198914     -0.422423      0.094086
O             0.289676      0.413803     -0.148193
O            -0.050445      0.398732      0.145100
O            -0.441013     -0.426269     -0.103433
O             0.061702     -0.407127     -0.148849
O             0.441831      0.414408      0.098187
Fe            0.144319     -0.243017     -0.288205
Fe            0.350479     -0.071426      0.476392
Fe           -0.164989     -0.085481      0.283268
Fe           -0.347177     -0.245153     -0.471894
H            -0.086271     -0.267187     -0.455869
H            -0.407308     -0.049819      0.300914
H             0.067279     -0.072439      0.460014
H             0.421428     -0.229340     -0.304409
O            -0.189446     -0.258365      0.412382
O            -0.297875     -0.091124     -0.334334
O             0.185972     -0.060668     -0.411908
O             0.278705     -0.232665      0.365546
O            -0.064103     -0.258608     -0.352981
O            -0.440789     -0.062602      0.398245
O             0.039597     -0.086132      0.359409
O             0.451637     -0.235863     -0.405484
Fe            0.145465      0.101192     -0.277284
Fe            0.361311      0.259893      0.467197
Fe           -0.147956      0.242995      0.280894
Fe           -0.346600      0.089362     -0.463400
H            -0.094243      0.073720     -0.455156
H            -0.396048      0.262722      0.292688
H             0.092295      0.251167      0.451331
H             0.424676      0.101992     -0.303060
O            -0.198451      0.078033      0.406580
O            -0.322464      0.261180     -0.337888
O             0.200614      0.249945     -0.405353
O             0.307687      0.090909      0.343887
O            -0.068900      0.085488     -0.352684
O            -0.434463      0.269825      0.390073
O             0.054570      0.249821      0.352013
O             0.452225      0.088542     -0.403230
Zn            0.147609      0.435535     -0.301382
Zn            0.388926     -0.423389      0.487840
Fe           -0.141901     -0.409478      0.263352
Fe           -0.354290      0.426079     -0.470699
H            -0.093746      0.415714     -0.442724
H            -0.417680     -0.421002      0.299004
H             0.071124     -0.418427      0.438399
H             0.404656      0.435265     -0.281248
O            -0.207960      0.425130      0.400351
O            -0.301150     -0.408252     -0.333547
O             0.191877     -0.397337     -0.417877
O             0.305663      0.408747      0.343536
O            -0.053663      0.408928     -0.347193
O            -0.440958     -0.411942      0.400590
O             0.049038     -0.415832      0.335850
O             0.448229      0.432164     -0.375036
H             0.217186     -0.280840      0.429911
H             0.054917      0.321916     -0.114515
data_nwchem_pspw

_audit_creation_date   Wed Feb 15 05:18:59 2023
_audit_creation_method    generated by PSPW module of NWChem


_cell_length_a            10.0667
_cell_length_b             9.1552
_cell_length_c             9.2041
_cell_angle_alpha         90.0000
_cell_angle_beta          90.0000
_cell_angle_gamma         90.0000

_symmetry_space_group_name_H-M     P1  

loop_
_atom_site_type_symbol
_atom_site_fract_x
_atom_site_fract_y
_atom_site_fract_z
Fe            0.130033     -0.254902      0.207257
Fe            0.345244     -0.062672     -0.017358
Fe           -0.154713     -0.076752     -0.227880
Fe           -0.357666     -0.244855      0.018749
H            -0.096853     -0.254101      0.037208
H            -0.466289     -0.113750     -0.205069
H             0.083497     -0.080996     -0.044226
H             0.447814     -0.260894      0.219813
O            -0.203499     -0.245761     -0.105769
O            -0.300796     -0.083367      0.142286
O             0.192190     -0.081210      0.097137
O             0.287746     -0.251289     -0.133556
O            -0.067044     -0.269909      0.135847
O            -0.471443     -0.088604     -0.101813
O             0.054411     -0.066482     -0.143053
O             0.441319     -0.242501      0.119073
Fe            0.142310      0.069100      0.243949
Fe            0.377737      0.271118     -0.035996
Fe           -0.133763      0.252169     -0.235937
Fe           -0.353994      0.069020      0.004711
H            -0.052194      0.072916      0.045964
H            -0.391587      0.240245     -0.212397
H             0.132745      0.250593      0.042475
H             0.427918      0.089131      0.201609
O            -0.195998      0.095919     -0.105101
O            -0.302279      0.239207      0.154128
O             0.206189      0.243616      0.108367
O             0.307652      0.108848     -0.157326
O            -0.039307      0.080489      0.148965
O            -0.433819      0.240677     -0.109560
O             0.054969      0.254182     -0.136991
O             0.451891      0.098963      0.100480
Fe            0.141035      0.407494      0.242817
Fe            0.350243     -0.410203     -0.014192
Fe           -0.144932     -0.409524     -0.232290
Fe           -0.343856      0.409564      0.015338
H            -0.093202      0.417257      0.055354
H            -0.415572     -0.398962     -0.202005
H             0.067917     -0.424695     -0.038934
H             0.399151      0.412885      0.192110
O            -0.194402      0.431094     -0.105235
O            -0.303938     -0.411755      0.139729
O             0.195551     -0.425918      0.108887
O             0.308901      0.421336     -0.152916
O            -0.051304      0.414984      0.151194
O            -0.454932     -0.405066     -0.106033
O             0.051725     -0.430905     -0.142574
O             0.450821      0.425098      0.102266
Fe            0.146030     -0.258445     -0.260255
Fe            0.360554     -0.079202     -0.497546
Fe           -0.157906     -0.103457      0.276216
Fe           -0.350610     -0.246290     -0.480954
H            -0.087251     -0.252091     -0.445860
H            -0.438017     -0.100575      0.299453
H             0.067850     -0.100841      0.448943
H             0.406126     -0.246481     -0.285652
O            -0.197580     -0.271845      0.406644
O            -0.299019     -0.080499     -0.346576
O             0.197312     -0.100646     -0.384346
O             0.264591     -0.233212      0.378920
O            -0.053953     -0.241998     -0.347542
O            -0.451857     -0.099923      0.403034
O             0.038871     -0.090322      0.349234
O             0.458312     -0.254415     -0.374284
Fe            0.152938      0.088860     -0.275018
Fe            0.352425      0.249455      0.465023
Fe           -0.144042      0.245196      0.284349
Fe           -0.357944      0.090534     -0.483617
H            -0.081797      0.095518     -0.449835
H            -0.408939      0.242591      0.288332
H             0.092742      0.271825      0.473778
H             0.417045      0.091743     -0.287163
O            -0.204014      0.072223      0.405735
O            -0.308058      0.240273     -0.338989
O             0.193617      0.237503     -0.411452
O             0.302191      0.075968      0.361348
O            -0.046940      0.084091     -0.352806
O            -0.450967      0.230754      0.386274
O             0.049689      0.269154      0.377607
O             0.448296      0.089491     -0.388169
Zn            0.151705      0.421013     -0.301899
Zn            0.375229     -0.412844      0.487244
Fe           -0.154787     -0.425742      0.263037
Fe           -0.351628      0.417293     -0.467471
H            -0.080959      0.415966     -0.462891
H            -0.412164     -0.419865      0.293990
H             0.083188     -0.413174      0.449207
H             0.432860      0.387198     -0.313331
O            -0.200761      0.411017      0.397855
O            -0.297487     -0.417261     -0.349396
O             0.198738     -0.405826     -0.414342
O             0.308076      0.414927      0.343176
O            -0.061148      0.427984     -0.360261
O            -0.441036     -0.405529      0.393933
O             0.045696     -0.419962      0.348927
O             0.460089      0.398256     -0.415048
H             0.208788     -0.283970      0.446077
H             0.055374      0.358299     -0.130316
data_nwchem_pspw

_audit_creation_date   Wed Feb 15 11:33:42 2023
_audit_creation_method    generated by PSPW module of NWChem


_cell_length_a            10.0667
_cell_length_b             9.1552
_cell_length_c             9.2041
_cell_angle_alpha         90.0000
_cell_angle_beta          90.0000
_cell_angle_gamma         90.0000

_symmetry_space_group_name_H-M     P1  

loop_
_atom_site_type_symbol
_atom_site_fract_x
_atom_site_fract_y
_atom_site_fract_z
Fe            0.129596     -0.229334      0.200703
Fe            0.351279     -0.081933     -0.035594
Fe           -0.146101     -0.070722     -0.216617
Fe           -0.369981     -0.260168      0.006905
H            -0.094287     -0.235261      0.054893
H            -0.423300     -0.096759     -0.206943
H             0.076907     -0.089889     -0.037632
H             0.421421     -0.245477      0.197542
O            -0.201566     -0.241600     -0.097392
O            -0.315401     -0.094381      0.131013
O             0.194047     -0.072520      0.077022
O             0.292542     -0.254574     -0.154230
O            -0.064075     -0.250296      0.151406
O            -0.449386     -0.081085     -0.107365
O             0.050911     -0.075240     -0.136988
O             0.436774     -0.258155      0.096173
Fe            0.133355      0.085854      0.227306
Fe            0.363839      0.244987     -0.038294
Fe           -0.135237      0.253964     -0.226015
Fe           -0.354400      0.079930      0.039104
H            -0.092154      0.088102      0.056944
H            -0.396731      0.231052     -0.195955
H             0.122538      0.234894      0.013618
H             0.384145      0.086995      0.198181
O            -0.191910      0.100332     -0.090188
O            -0.312182      0.238107      0.172123
O             0.186015      0.261892      0.090839
O             0.298460      0.085527     -0.155080
O            -0.062216      0.071182      0.158229
O            -0.434615      0.250338     -0.100258
O             0.042246      0.265096     -0.138124
O             0.430358      0.088765      0.100447
Fe            0.152278      0.434556      0.239414
Fe            0.344593     -0.419878     -0.026175
Fe           -0.147104     -0.414212     -0.224919
Fe           -0.354566      0.423444      0.034610
H            -0.092838      0.417898      0.060398
H            -0.423982     -0.440748     -0.210128
H             0.075426     -0.393640     -0.045987
H             0.433462      0.372757      0.198789
O            -0.194079      0.425011     -0.094212
O            -0.296686     -0.417512      0.154281
O             0.189318     -0.413587      0.084679
O             0.310018      0.415568     -0.160485
O            -0.048991      0.422400      0.154880
O            -0.454470     -0.434959     -0.112260
O             0.043292     -0.405686     -0.144792
O             0.453025      0.406843      0.101526
Fe            0.133365     -0.248628     -0.269152
Fe            0.367647     -0.091792      0.472310
Fe           -0.172004     -0.094450      0.259896
Fe           -0.358770     -0.246596     -0.459074
H            -0.086527     -0.228015     -0.447916
H            -0.425394     -0.104502      0.301059
H             0.084474     -0.073182      0.448148
H             0.397240     -0.253702     -0.297365
O            -0.208771     -0.246163      0.415601
O            -0.301236     -0.085590     -0.345712
O             0.198644     -0.093482     -0.399867
O             0.276329     -0.266605      0.359967
O            -0.048083     -0.243298     -0.354203
O            -0.448487     -0.074283      0.397859
O             0.057491     -0.063041      0.348021
O             0.441940     -0.253518     -0.392021
Fe            0.147318      0.070611     -0.280373
Fe            0.367045      0.238055      0.470681
Fe           -0.139811      0.246831      0.278885
Fe           -0.346045      0.089112     -0.464323
H            -0.087204      0.072818     -0.441187
H            -0.384547      0.236802      0.309276
H             0.069269      0.261407      0.457661
H             0.438743      0.088924     -0.301387
O            -0.199813      0.085580      0.396729
O            -0.286368      0.252916     -0.334280
O             0.210621      0.239482     -0.401993
O             0.306452      0.080692      0.333194
O            -0.046060      0.097068     -0.348093
O            -0.429740      0.238324      0.407217
O             0.041489      0.270271      0.358513
O             0.467807      0.065431     -0.397971
Zn            0.152841      0.420291     -0.300357
Zn            0.377783     -0.443691      0.487037
Fe           -0.144794     -0.417288      0.282475
Fe           -0.349612      0.420714     -0.470376
H            -0.092802      0.412447     -0.452057
H            -0.418828     -0.410524      0.301725
H             0.099891     -0.397764      0.450190
H             0.418594      0.425551     -0.300236
O            -0.188054      0.409161      0.412296
O            -0.297163     -0.407800     -0.351701
O             0.206697     -0.390226     -0.409619
O             0.311704      0.402406      0.350750
O            -0.050899      0.437517     -0.358662
O            -0.436225     -0.423253      0.402586
O             0.052722     -0.410932      0.359789
O             0.464581      0.397785     -0.392456
H             0.230955     -0.292267      0.456382
H             0.050235      0.364842     -0.104585
data_nwchem_pspw

_audit_creation_date   Wed Feb 15 13:56:09 2023
_audit_creation_method    generated by PSPW module of NWChem


_cell_length_a            10.0667
_cell_length_b             9.1552
_cell_length_c             9.2041
_cell_angle_alpha         90.0000
_cell_angle_beta          90.0000
_cell_angle_gamma         90.0000

_symmetry_space_group_name_H-M     P1  

loop_
_atom_site_type_symbol
_atom_site_fract_x
_atom_site_fract_y
_atom_site_fract_z
Fe            0.128663     -0.249882      0.205968
Fe            0.345458     -0.092104     -0.027918
Fe           -0.148102     -0.082180     -0.228595
Fe           -0.371277     -0.243742      0.001506
H            -0.093793     -0.224977      0.038898
H            -0.415159     -0.078670     -0.213279
H             0.080458     -0.079671     -0.042169
H             0.415048     -0.265518      0.203724
O            -0.211127     -0.262493     -0.107530
O            -0.304186     -0.092621      0.145882
O             0.189822     -0.082906      0.096467
O             0.300640     -0.260565     -0.142893
O            -0.060649     -0.249114      0.132869
O            -0.457066     -0.083431     -0.115396
O             0.048318     -0.071914     -0.142936
O             0.436390     -0.241794      0.105152
Fe            0.151265      0.076161      0.242737
Fe            0.359587      0.248606     -0.026083
Fe           -0.144432      0.246143     -0.227135
Fe           -0.353736      0.081118      0.029089
H            -0.080874      0.105298      0.065325
H            -0.417251      0.251815     -0.201974
H             0.131569      0.231741      0.026179
H             0.417657      0.067875      0.199586
O            -0.205648      0.082028     -0.102160
O            -0.299125      0.240684      0.156000
O             0.200814      0.241690      0.100235
O             0.283912      0.074695     -0.132591
O            -0.045960      0.089704      0.161441
O            -0.442558      0.246589     -0.099029
O             0.046828      0.242762     -0.131213
O             0.449270      0.059733      0.101631
Fe            0.144015      0.424192      0.247000
Fe            0.349189     -0.435509     -0.020407
Fe           -0.149260     -0.402615     -0.229913
Fe           -0.329369      0.418896      0.018732
H            -0.064160      0.428503      0.048554
H            -0.422081     -0.426166     -0.203615
H             0.053564     -0.402285     -0.043400
H             0.431773      0.430546      0.206929
O            -0.191843      0.420853     -0.114784
O            -0.310146     -0.407045      0.143475
O             0.194441     -0.416301      0.100499
O             0.317357      0.408096     -0.156526
O            -0.052003      0.424163      0.151928
O            -0.446215     -0.419642     -0.101304
O             0.042103     -0.418015     -0.146213
O             0.451524      0.419372      0.105210
Fe            0.147327     -0.272934     -0.268006
Fe            0.347240     -0.077789      0.490028
Fe           -0.157176     -0.072787      0.262692
Fe           -0.356521     -0.231624     -0.483456
H            -0.090486     -0.237416     -0.451443
H            -0.426215     -0.095399      0.288000
H             0.090809     -0.090418      0.456844
H             0.427808     -0.254053     -0.292752
O            -0.207340     -0.239010      0.397838
O            -0.313434     -0.077643     -0.338112
O             0.195682     -0.078900     -0.399715
O             0.287793     -0.249389      0.356384
O            -0.051619     -0.254754     -0.356312
O            -0.440547     -0.079550      0.389920
O             0.060333     -0.081716      0.357129
O             0.454914     -0.240272     -0.392294
Fe            0.141613      0.088471     -0.262555
Fe            0.363058      0.248582      0.468232
Fe           -0.138627      0.247579      0.294136
Fe           -0.343095      0.094995     -0.473985
H            -0.082880      0.070224     -0.459648
H            -0.401552      0.237289      0.295566
H             0.105992      0.231240      0.455811
H             0.434772      0.079952     -0.287336
O            -0.192618      0.078105      0.417201
O            -0.309320      0.259191     -0.339127
O             0.199118      0.230536     -0.406343
O             0.310566      0.085827      0.356460
O            -0.053758      0.077864     -0.353754
O            -0.445687      0.256454      0.389454
O             0.066470      0.246920      0.354517
O             0.459375      0.074582     -0.387641
Zn            0.157786      0.411757     -0.299754
Zn            0.379569     -0.425989      0.490178
Fe           -0.163550     -0.403561      0.268766
Fe           -0.356424      0.421340     -0.487416
H            -0.068632      0.397893     -0.445881
H            -0.427827     -0.410576      0.292743
H             0.086806     -0.409425      0.453935
H             0.414042      0.409506     -0.291228
O            -0.196861      0.414100      0.402412
O            -0.308824     -0.408628     -0.355191
O             0.206391     -0.406656     -0.411331
O             0.307779      0.414716      0.349034
O            -0.047057      0.407171     -0.347163
O            -0.439207     -0.412657      0.396118
O             0.048704     -0.415175      0.358058
O             0.454414      0.404920     -0.389656
H             0.221443     -0.288715      0.421955
H             0.052546      0.343832     -0.106284
data_nwchem_pspw

_audit_creation_date   Wed Feb 15 15:55:19 2023
_audit_creation_method    generated by PSPW module of NWChem


_cell_length_a            10.0667
_cell_length_b             9.1552
_cell_length_c             9.2041
_cell_angle_alpha         90.0000
_cell_angle_beta          90.0000
_cell_angle_gamma         90.0000

_symmetry_space_group_name_H-M     P1  

loop_
_atom_site_type_symbol
_atom_site_fract_x
_atom_site_fract_y
_atom_site_fract_z
Fe            0.137275     -0.252226      0.197641
Fe            0.362832     -0.071218     -0.034986
Fe           -0.158812     -0.098780     -0.231026
Fe           -0.353346     -0.246456      0.017346
H            -0.097661     -0.252494      0.050239
H            -0.403620     -0.064036     -0.198442
H             0.053819     -0.131835     -0.046411
H             0.420309     -0.229636      0.195798
O            -0.199440     -0.259908     -0.094846
O            -0.314503     -0.077255      0.153095
O             0.214209     -0.079393      0.100899
O             0.296648     -0.242470     -0.154770
O            -0.053424     -0.225743      0.140679
O            -0.439468     -0.067227     -0.100291
O             0.043169     -0.101417     -0.143858
O             0.444705     -0.235500      0.095994
Fe            0.149924      0.074935      0.224863
Fe            0.374037      0.262092     -0.038371
Fe           -0.136693      0.230123     -0.216837
Fe           -0.341523      0.091859      0.026672
H            -0.084493      0.096257      0.050023
H            -0.396901      0.263144     -0.193485
H             0.141067      0.232954      0.016826
H             0.412237      0.098483      0.199631
O            -0.202885      0.073783     -0.108077
O            -0.294224      0.247022      0.143786
O             0.205858      0.236258      0.099275
O             0.318816      0.083199     -0.163011
O            -0.045970      0.094158      0.145992
O            -0.435959      0.255955     -0.096480
O             0.052286      0.230876     -0.106519
O             0.450737      0.099994      0.102446
Fe            0.154066      0.404666      0.234916
Fe            0.352210     -0.405941     -0.015436
Fe           -0.144184     -0.424753     -0.223491
Fe           -0.352833      0.431460      0.030512
H            -0.092634      0.413634      0.042714
H            -0.414858     -0.408950     -0.202627
H             0.100215     -0.431774     -0.054333
H             0.418757      0.430904      0.213288
O            -0.194733      0.418004     -0.105570
O            -0.284669     -0.405397      0.147814
O             0.184292     -0.426928      0.089193
O             0.294705      0.409662     -0.139288
O            -0.055005      0.418835      0.139431
O            -0.450992     -0.408694     -0.103480
O             0.054926     -0.414585     -0.147375
O             0.451105      0.444252      0.116372
Fe            0.133080     -0.255097     -0.278842
Fe            0.347946     -0.078188      0.485995
Fe           -0.158543     -0.091325      0.272501
Fe           -0.359209     -0.250062     -0.477870
H            -0.096398     -0.268032     -0.451511
H            -0.413595     -0.070308      0.298580
H             0.084584     -0.079239      0.454259
H             0.402933     -0.247618     -0.301140
O            -0.201072     -0.252025      0.405933
O            -0.308299     -0.086138     -0.349831
O             0.182861     -0.078941     -0.402037
O             0.281060     -0.268344      0.359452
O            -0.065938     -0.254230     -0.353171
O            -0.447025     -0.089577      0.397869
O             0.052336     -0.078781      0.354873
O             0.449479     -0.232186     -0.392942
Fe            0.149205      0.077063     -0.260800
Fe            0.347971      0.248957      0.479780
Fe           -0.149780      0.253966      0.276565
Fe           -0.355121      0.089214     -0.473653
H            -0.091380      0.090844     -0.438306
H            -0.428640      0.263680      0.299909
H             0.097110      0.281245      0.437411
H             0.405708      0.084695     -0.301550
O            -0.200485      0.078902      0.400502
O            -0.299682      0.243551     -0.337555
O             0.180210      0.237852     -0.402675
O             0.305632      0.072086      0.347452
O            -0.058374      0.070362     -0.341617
O            -0.439695      0.251411      0.402592
O             0.063121      0.255432      0.341734
O             0.445822      0.086016     -0.399950
Zn            0.142401      0.426776     -0.301902
Zn            0.376601     -0.415732      0.486923
Fe           -0.147674     -0.425459      0.283931
Fe           -0.354614      0.416866     -0.470879
H            -0.103234      0.407630     -0.425544
H            -0.394447     -0.392328      0.293076
H             0.085153     -0.401732      0.441843
H             0.405553      0.412187     -0.291253
O            -0.191429      0.417464      0.407623
O            -0.306469     -0.412203     -0.351086
O             0.179174     -0.387949     -0.426307
O             0.302846      0.394349      0.357327
O            -0.055726      0.401093     -0.334199
O            -0.441088     -0.422877      0.379759
O             0.053499     -0.411287      0.339986
O             0.438552      0.405570     -0.390217
H             0.212870     -0.280868      0.434174
H             0.053560      0.335007     -0.108690
data_nwchem_pspw

_audit_creation_date   Wed Feb 15 17:57:58 2023
_audit_creation_method    generated by PSPW module of NWChem


_cell_length_a            10.0667
_cell_length_b             9.1552
_cell_length_c             9.2041
_cell_angle_alpha         90.0000
_cell_angle_beta          90.0000
_cell_angle_gamma         90.0000

_symmetry_space_group_name_H-M     P1  

loop_
_atom_site_type_symbol
_atom_site_fract_x
_atom_site_fract_y
_atom_site_fract_z
Fe            0.116029     -0.267907      0.195365
Fe            0.346286     -0.089664     -0.028816
Fe           -0.150182     -0.073373     -0.236264
Fe           -0.350321     -0.244607      0.037968
H            -0.085020     -0.279136      0.037664
H            -0.413349     -0.099714     -0.187427
H             0.076342     -0.072392     -0.045421
H             0.398070     -0.261394      0.196378
O            -0.210707     -0.256642     -0.097717
O            -0.296517     -0.077106      0.160929
O             0.185409     -0.084601      0.091301
O             0.296709     -0.265654     -0.150211
O            -0.064006     -0.258093      0.137330
O            -0.453090     -0.091137     -0.091283
O             0.053761     -0.078676     -0.147653
O             0.440773     -0.252428      0.102785
Fe            0.150614      0.072071      0.226309
Fe            0.365796      0.241120     -0.033217
Fe           -0.133397      0.267864     -0.222698
Fe           -0.344576      0.081469      0.019249
H            -0.063140      0.056107      0.064142
H            -0.388967      0.251121     -0.209317
H             0.115740      0.252921      0.019715
H             0.394675      0.080271      0.185092
O            -0.189685      0.090120     -0.101067
O            -0.299107      0.249578      0.156914
O             0.185764      0.243102      0.097150
O             0.292958      0.084507     -0.149759
O            -0.052752      0.082300      0.163039
O            -0.433481      0.242581     -0.114813
O             0.040837      0.296198     -0.121808
O             0.449291      0.079597      0.094147
Fe            0.144174      0.414015      0.244204
Fe            0.355419     -0.423580     -0.021850
Fe           -0.158756     -0.412081     -0.220812
Fe           -0.362623      0.403657      0.024342
H            -0.090007      0.425471      0.051778
H            -0.415369     -0.412134     -0.197325
H             0.101057     -0.402859     -0.073363
H             0.414221      0.379032      0.213003
O            -0.206017      0.426330     -0.085478
O            -0.320883     -0.417641      0.164285
O             0.196773     -0.427305      0.092207
O             0.299162      0.406809     -0.145872
O            -0.055007      0.423085      0.151035
O            -0.448421     -0.425110     -0.096470
O             0.038254     -0.401613     -0.151878
O             0.448970      0.402358      0.116863
Fe            0.151724     -0.260464     -0.279346
Fe            0.358865     -0.084316      0.464143
Fe           -0.142044     -0.061746      0.289672
Fe           -0.360841     -0.231647     -0.480872
H            -0.091897     -0.234129     -0.458200
H            -0.421305     -0.064546      0.283530
H             0.083855     -0.118866      0.453463
H             0.420319     -0.258274     -0.293326
O            -0.200775     -0.231616      0.410715
O            -0.305173     -0.069289     -0.340932
O             0.208866     -0.086326     -0.408540
O             0.292693     -0.248795      0.344447
O            -0.058080     -0.225726     -0.359358
O            -0.454190     -0.083171      0.383164
O             0.057119     -0.100924      0.354725
O             0.449856     -0.247663     -0.394263
Fe            0.153857      0.076805     -0.288871
Fe            0.360477      0.238744      0.469510
Fe           -0.138922      0.252723      0.277358
Fe           -0.351067      0.102196     -0.467926
H            -0.080419      0.103780     -0.450933
H            -0.432894      0.250157      0.301521
H             0.085280      0.239105      0.467160
H             0.439575      0.079294     -0.309910
O            -0.195439      0.093915      0.408008
O            -0.284562      0.265981     -0.343543
O             0.217702      0.232806     -0.403290
O             0.318300      0.070819      0.326452
O            -0.046093      0.097604     -0.352738
O            -0.436747      0.258896      0.405512
O             0.044464      0.257298      0.370549
O             0.455917      0.076450     -0.412738
Zn            0.144678      0.411627     -0.301349
Zn            0.376080     -0.429440      0.487286
Fe           -0.164725     -0.412026      0.280206
Fe           -0.346077      0.430593     -0.456538
H            -0.109196      0.435836     -0.454303
H            -0.432678     -0.446060      0.293758
H             0.094769     -0.426386      0.454636
H             0.419420      0.375692     -0.289778
O            -0.198506      0.421275      0.412758
O            -0.328051     -0.394428     -0.331165
O             0.199294     -0.424411     -0.419940
O             0.296418      0.395131      0.363165
O            -0.064876      0.432574     -0.358010
O            -0.444354     -0.423507      0.395586
O             0.057213     -0.422443      0.353724
O             0.457639      0.378289     -0.390066
H             0.230282     -0.293521      0.409327
H             0.047690      0.397681     -0.095749
data_nwchem_pspw

_audit_creation_date   Wed Feb 15 19:55:00 2023
_audit_creation_method    generated by PSPW module of NWChem


_cell_length_a            10.0667
_cell_length_b             9.1552
_cell_length_c             9.2041
_cell_angle_alpha         90.0000
_cell_angle_beta          90.0000
_cell_angle_gamma         90.0000

_symmetry_space_group_name_H-M     P1  

loop_
_atom_site_type_symbol
_atom_site_fract_x
_atom_site_fract_y
_atom_site_fract_z
Fe            0.132528     -0.236816      0.205851
Fe            0.365946     -0.059710     -0.027284
Fe           -0.143193     -0.088828     -0.216670
Fe           -0.362710     -0.263331      0.024159
H            -0.056582     -0.272145      0.030353
H            -0.410907     -0.075603     -0.211776
H             0.093807     -0.074799     -0.053751
H             0.425191     -0.225811      0.207047
O            -0.199484     -0.249397     -0.087821
O            -0.312986     -0.095420      0.161337
O             0.195669     -0.074074      0.084310
O             0.309347     -0.232713     -0.149303
O            -0.052468     -0.247770      0.133829
O            -0.438516     -0.088998     -0.112202
O             0.052737     -0.076568     -0.151498
O             0.441770     -0.219596      0.105264
Fe            0.143445      0.075328      0.234730
Fe            0.350179      0.279154     -0.042315
Fe           -0.142382      0.247682     -0.231545
Fe           -0.351861      0.069362      0.025470
H            -0.053158      0.096154      0.035975
H            -0.443506      0.238633     -0.207519
H             0.130651      0.259413      0.042253
H             0.418834      0.055118      0.200175
O            -0.211930      0.085487     -0.114680
O            -0.304887      0.254527      0.152682
O             0.206016      0.252390      0.111049
O             0.306933      0.087739     -0.154349
O            -0.063716      0.083083      0.138199
O            -0.458353      0.247741     -0.105642
O             0.042676      0.238719     -0.114290
O             0.457717      0.092429      0.111571
Fe            0.158371      0.422127      0.255270
Fe            0.338286     -0.396163     -0.020584
Fe           -0.149548     -0.419689     -0.207502
Fe           -0.361049      0.411378      0.026225
H            -0.070380      0.392898      0.043914
H            -0.418949     -0.423961     -0.201109
H             0.077633     -0.414499     -0.038348
H             0.424939      0.402185      0.201666
O            -0.205110      0.398064     -0.099394
O            -0.306700     -0.420402      0.147025
O             0.184905     -0.405698      0.106823
O             0.268830      0.441073     -0.144391
O            -0.054642      0.411981      0.144727
O            -0.449789     -0.418944     -0.100846
O             0.039045     -0.405363     -0.133887
O             0.438427      0.434129      0.103141
Fe            0.153832     -0.249157     -0.270825
Fe            0.359103     -0.076951      0.478149
Fe           -0.148490     -0.079830      0.263624
Fe           -0.348777     -0.270480     -0.472370
H            -0.110112     -0.251263     -0.427917
H            -0.419787     -0.106826      0.305415
H             0.068324     -0.101343      0.451248
H             0.425944     -0.250580     -0.289575
O            -0.193456     -0.258243      0.396967
O            -0.293921     -0.104213     -0.353333
O             0.198540     -0.084077     -0.416778
O             0.286958     -0.245574      0.353989
O            -0.061192     -0.259110     -0.336046
O            -0.449546     -0.084728      0.405028
O             0.051443     -0.085303      0.348703
O             0.445479     -0.249776     -0.391768
Fe            0.145409      0.089879     -0.284956
Fe            0.365300      0.239041      0.485542
Fe           -0.152546      0.249388      0.254298
Fe           -0.335328      0.071522     -0.469012
H            -0.089344      0.083228     -0.448555
H            -0.433291      0.216858      0.303997
H             0.108387      0.266325      0.462321
H             0.410424      0.064448     -0.293036
O            -0.177694      0.077003      0.397273
O            -0.298869      0.252850     -0.366021
O             0.195818      0.246916     -0.402553
O             0.305025      0.077723      0.353683
O            -0.053772      0.096399     -0.350183
O            -0.446641      0.216318      0.406414
O             0.061673      0.258737      0.364641
O             0.467568      0.071388     -0.381728
Zn            0.142615      0.424682     -0.302089
Zn            0.366770     -0.429017      0.488909
Fe           -0.155835     -0.421352      0.269751
Fe           -0.349803      0.414748     -0.484639
H            -0.079852      0.417268     -0.451846
H            -0.427769     -0.423223      0.292497
H             0.057563     -0.419902      0.443355
H             0.433693      0.436152     -0.298046
O            -0.200584      0.411335      0.403163
O            -0.297212     -0.425576     -0.338905
O             0.188141     -0.394212     -0.411646
O             0.310500      0.407725      0.365054
O            -0.046676      0.412471     -0.353368
O            -0.445485     -0.416230      0.395392
O             0.046412     -0.426073      0.339989
O             0.457857      0.416692     -0.398512
H             0.230468     -0.281282      0.433355
H             0.070080      0.337164     -0.096318
data_nwchem_pspw

_audit_creation_date   Wed Feb 15 21:55:20 2023
_audit_creation_method    generated by PSPW module of NWChem


_cell_length_a            10.0667
_cell_length_b             9.1552
_cell_length_c             9.2041
_cell_angle_alpha         90.0000
_cell_angle_beta          90.0000
_cell_angle_gamma         90.0000

_symmetry_space_group_name_H-M     P1  

loop_
_atom_site_type_symbol
_atom_site_fract_x
_atom_site_fract_y
_atom_site_fract_z
Fe            0.143049     -0.262825      0.209074
Fe            0.340551     -0.083766     -0.013011
Fe           -0.147343     -0.080704     -0.208709
Fe           -0.350717     -0.263251      0.032314
H            -0.086127     -0.246974      0.041075
H            -0.428321     -0.082159     -0.172595
H             0.077332     -0.088345     -0.031758
H             0.423157     -0.280787      0.214596
O            -0.200451     -0.254532     -0.091737
O            -0.287569     -0.091307      0.145865
O             0.185778     -0.080812      0.104543
O             0.295791     -0.264762     -0.139937
O            -0.044051     -0.254471      0.135802
O            -0.459968     -0.103195     -0.074290
O             0.045111     -0.089057     -0.131610
O             0.444155     -0.253597      0.117649
Fe            0.152025      0.068843      0.250993
Fe            0.357816      0.241069     -0.042415
Fe           -0.143347      0.245648     -0.241425
Fe           -0.354721      0.067600      0.034579
H            -0.072046      0.083028      0.051316
H            -0.412258      0.231056     -0.197992
H             0.094511      0.221468      0.039362
H             0.410233      0.091491      0.199345
O            -0.199024      0.087798     -0.095884
O            -0.297269      0.244627      0.156499
O             0.177614      0.241404      0.096382
O             0.294460      0.079191     -0.150708
O            -0.044404      0.079882      0.152400
O            -0.441850      0.236658     -0.098642
O             0.029964      0.225493     -0.136490
O             0.432095      0.083883      0.095751
Fe            0.140632      0.408843      0.233818
Fe            0.359507     -0.427623     -0.032913
Fe           -0.151181     -0.404321     -0.239155
Fe           -0.357115      0.409029      0.014134
H            -0.090268      0.420309      0.046348
H            -0.401562     -0.414690     -0.208114
H             0.074622     -0.420016     -0.066002
H             0.407168      0.403087      0.204321
O            -0.204260      0.408363     -0.116333
O            -0.306273     -0.431607      0.153384
O             0.190456     -0.418624      0.093595
O             0.304447      0.403093     -0.152031
O            -0.055914      0.399931      0.142686
O            -0.439338     -0.422001     -0.109624
O             0.046701     -0.408951     -0.165285
O             0.453422      0.397659      0.109519
Fe            0.137897     -0.236651     -0.275914
Fe            0.358348     -0.081143      0.484929
Fe           -0.135113     -0.084026      0.261841
Fe           -0.350373     -0.233827     -0.471445
H            -0.084348     -0.257005     -0.449140
H            -0.440304     -0.109487      0.316843
H             0.057558     -0.092758      0.460949
H             0.401214     -0.242216     -0.283089
O            -0.201282     -0.240576      0.397015
O            -0.305086     -0.074325     -0.336731
O             0.202719     -0.075779     -0.396700
O             0.279594     -0.236516      0.359517
O            -0.068747     -0.243194     -0.346838
O            -0.443986     -0.076383      0.414492
O             0.045273     -0.099903      0.358401
O             0.455423     -0.222851     -0.368719
Fe            0.137718      0.083992     -0.275875
Fe            0.353045      0.261618      0.477602
Fe           -0.146693      0.239497      0.268801
Fe           -0.344846      0.105243     -0.472313
H            -0.115584      0.053951     -0.444695
H            -0.411616      0.280133      0.294388
H             0.086061      0.234850      0.462984
H             0.414306      0.111014     -0.306753
O            -0.195729      0.087998      0.409414
O            -0.308383      0.263081     -0.346504
O             0.190448      0.246599     -0.403977
O             0.319336      0.080755      0.341678
O            -0.055881      0.079931     -0.365486
O            -0.447047      0.277436      0.391992
O             0.052936      0.241727      0.362405
O             0.449797      0.102987     -0.401808
Zn            0.151171      0.430832     -0.302736
Zn            0.383435     -0.408975      0.489435
Fe           -0.155061     -0.411526      0.274565
Fe           -0.344761      0.428050     -0.481366
H            -0.095729      0.411848     -0.440314
H            -0.399823     -0.432346      0.304565
H             0.081148     -0.411137      0.437528
H             0.436001      0.423008     -0.289918
O            -0.183183      0.424564      0.403902
O            -0.307645     -0.411426     -0.353092
O             0.189515     -0.383447     -0.420397
O             0.295366      0.395864      0.339369
O            -0.049474      0.415463     -0.347390
O            -0.438220     -0.405856      0.399914
O             0.048797     -0.413112      0.338807
O             0.452584      0.411701     -0.392829
H             0.209982     -0.251100      0.435173
H             0.057018      0.321881     -0.110409
data_nwchem_pspw

_audit_creation_date   Wed Feb 15 23:57:02 2023
_audit_creation_method    generated by PSPW module of NWChem


_cell_length_a            10.0667
_cell_length_b             9.1552
_cell_length_c             9.2041
_cell_angle_alpha         90.0000
_cell_angle_beta          90.0000
_cell_angle_gamma         90.0000

_symmetry_space_group_name_H-M     P1  

loop_
_atom_site_type_symbol
_atom_site_fract_x
_atom_site_fract_y
_atom_site_fract_z
Fe            0.139254     -0.257136      0.189974
Fe            0.365840     -0.087817     -0.022313
Fe           -0.164961     -0.084374     -0.197266
Fe           -0.350832     -0.266312      0.034317
H            -0.095915     -0.255324      0.040142
H            -0.420313     -0.075027     -0.197979
H             0.083791     -0.073598     -0.037681
H             0.434176     -0.267266      0.215226
O            -0.190291     -0.271802     -0.087256
O            -0.294900     -0.076443      0.142594
O             0.210465     -0.067712      0.110976
O             0.312149     -0.245788     -0.152487
O            -0.048805     -0.256423      0.136082
O            -0.440112     -0.066767     -0.095874
O             0.048256     -0.081312     -0.134423
O             0.445238     -0.267805      0.112553
Fe            0.138320      0.076839      0.236702
Fe            0.361187      0.250032     -0.040858
Fe           -0.147603      0.235829     -0.225927
Fe           -0.358493      0.095269      0.045838
H            -0.081242      0.102816      0.050445
H            -0.398458      0.240497     -0.204473
H             0.121608      0.218715      0.025898
H             0.416185      0.093408      0.194464
O            -0.205686      0.088125     -0.083655
O            -0.295278      0.261975      0.147285
O             0.183518      0.249522      0.098808
O             0.294114      0.079745     -0.139445
O            -0.046287      0.094310      0.148797
O            -0.443512      0.259191     -0.110432
O             0.037158      0.228449     -0.123230
O             0.456743      0.084894      0.099716
Fe            0.154858      0.426088      0.221577
Fe            0.355580     -0.421904     -0.050788
Fe           -0.130011     -0.421681     -0.220122
Fe           -0.347963      0.425131      0.005499
H            -0.096049      0.407036      0.033461
H            -0.400284     -0.403508     -0.202760
H             0.098536     -0.420126     -0.048880
H             0.382718      0.395351      0.187147
O            -0.194113      0.403028     -0.096658
O            -0.298981     -0.411023      0.157939
O             0.203617     -0.423208      0.078084
O             0.300389      0.414979     -0.171101
O            -0.050504      0.419094      0.127367
O            -0.448415     -0.405227     -0.108139
O             0.060689     -0.405032     -0.145823
O             0.437124      0.398321      0.100733
Fe            0.142204     -0.240382     -0.266430
Fe            0.347943     -0.087329      0.490893
Fe           -0.146867     -0.089656      0.276441
Fe           -0.341085     -0.234653     -0.475598
H            -0.085130     -0.238439     -0.444784
H            -0.458122     -0.069574      0.299595
H             0.071246     -0.080419      0.453488
H             0.427754     -0.249511     -0.278601
O            -0.186238     -0.252425      0.405240
O            -0.307693     -0.079981     -0.337635
O             0.195373     -0.069052     -0.384823
O             0.276837     -0.253996      0.354579
O            -0.061380     -0.230226     -0.342035
O            -0.457742     -0.087866      0.401887
O             0.034943     -0.080712      0.357238
O             0.456915     -0.239098     -0.377961
Fe            0.137754      0.090839     -0.262823
Fe            0.350057      0.247026      0.464849
Fe           -0.150660      0.241817      0.265320
Fe           -0.362307      0.084818     -0.473086
H            -0.092055      0.069865     -0.447935
H            -0.418513      0.246205      0.303329
H             0.059776      0.259366      0.462339
H             0.408123      0.096450     -0.291873
O            -0.224597      0.080168      0.392066
O            -0.302026      0.249318     -0.331269
O             0.192927      0.230676     -0.411640
O             0.297872      0.073663      0.349546
O            -0.067436      0.076791     -0.347188
O            -0.445704      0.254882      0.402209
O             0.046294      0.266176      0.357156
O             0.447118      0.078314     -0.384984
Zn            0.142788      0.430740     -0.309779
Zn            0.379358     -0.402905      0.490063
Fe           -0.127627     -0.431583      0.273644
Fe           -0.354143      0.415128     -0.466543
H            -0.096818      0.395926     -0.447480
H            -0.394240     -0.405000      0.308430
H             0.105577     -0.398288      0.483091
H             0.415087      0.396808     -0.302262
O            -0.208907      0.410347      0.397183
O            -0.293243     -0.423948     -0.341939
O             0.165622     -0.385816     -0.435300
O             0.300200      0.397910      0.338295
O            -0.053287      0.395470     -0.353379
O            -0.436444     -0.404582      0.403669
O             0.056121     -0.405012      0.335483
O             0.439801      0.402996     -0.403538
H             0.202942     -0.252049      0.420012
H             0.079633      0.319483     -0.102955
data_nwchem_pspw

_audit_creation_date   Thu Feb 16 01:57:43 2023
_audit_creation_method    generated by PSPW module of NWChem


_cell_length_a            10.0667
_cell_length_b             9.1552
_cell_length_c             9.2041
_cell_angle_alpha         90.0000
_cell_angle_beta          90.0000
_cell_angle_gamma         90.0000

_symmetry_space_group_name_H-M     P1  

loop_
_atom_site_type_symbol
_atom_site_fract_x
_atom_site_fract_y
_atom_site_fract_z
Fe            0.137834     -0.240991      0.209339
Fe            0.350067     -0.091095      0.002383
Fe           -0.132952     -0.069675     -0.228834
Fe           -0.355126     -0.252792      0.010108
H            -0.076560     -0.269217      0.045247
H            -0.425833     -0.096016     -0.184523
H             0.076937     -0.086972     -0.047979
H             0.407416     -0.264797      0.206398
O            -0.188915     -0.256354     -0.086268
O            -0.310542     -0.082793      0.154095
O             0.189263     -0.064783      0.109720
O             0.277796     -0.255544     -0.138436
O            -0.055254     -0.266738      0.149972
O            -0.461748     -0.079912     -0.088146
O             0.051989     -0.079912     -0.148841
O             0.434994     -0.265267      0.106986
Fe            0.125513      0.088131      0.250753
Fe            0.351123      0.234419     -0.018513
Fe           -0.137023      0.253581     -0.239072
Fe           -0.353206      0.071061      0.027434
H            -0.072269      0.085457      0.048127
H            -0.415630      0.224829     -0.197477
H             0.105365      0.243628      0.027584
H             0.410125      0.099789      0.222214
O            -0.205315      0.077078     -0.113790
O            -0.308409      0.255288      0.143687
O             0.177973      0.247279      0.107136
O             0.296806      0.075152     -0.140509
O            -0.061395      0.071504      0.150863
O            -0.451269      0.234843     -0.098788
O             0.040744      0.253012     -0.110464
O             0.440786      0.087081      0.123919
Fe            0.140835      0.423879      0.236527
Fe            0.349299     -0.424910     -0.019482
Fe           -0.146540     -0.408864     -0.225661
Fe           -0.353140      0.407590      0.000336
H            -0.081756      0.411189      0.058323
H            -0.423103     -0.387727     -0.200310
H             0.109663     -0.417453     -0.063737
H             0.423711      0.399398      0.199672
O            -0.186436      0.414748     -0.108091
O            -0.306588     -0.416444      0.145706
O             0.191837     -0.414163      0.087995
O             0.300144      0.396345     -0.141072
O            -0.053753      0.414604      0.158932
O            -0.459855     -0.404075     -0.102322
O             0.065511     -0.415580     -0.158618
O             0.446686      0.412254      0.098870
Fe            0.149326     -0.241899     -0.283394
Fe            0.355243     -0.073415      0.481076
Fe           -0.151683     -0.089575      0.267900
Fe           -0.355465     -0.248915     -0.461796
H            -0.085687     -0.251388     -0.449927
H            -0.416109     -0.071827      0.293711
H             0.084563     -0.086228      0.448313
H             0.433342     -0.250674     -0.286621
O            -0.203762     -0.248480      0.400062
O            -0.301610     -0.091925     -0.338894
O             0.197138     -0.074722     -0.407040
O             0.289644     -0.247937      0.344249
O            -0.047409     -0.243869     -0.353196
O            -0.447167     -0.084814      0.392439
O             0.040551     -0.084834      0.353700
O             0.451139     -0.223036     -0.385228
Fe            0.154486      0.086405     -0.261600
Fe            0.347018      0.252419      0.462238
Fe           -0.148699      0.247400      0.273218
Fe           -0.354828      0.069447     -0.479407
H            -0.065972      0.084177     -0.472948
H            -0.453056      0.239894      0.294191
H             0.083464      0.258157      0.469950
H             0.415682      0.054319     -0.286880
O            -0.202036      0.079542      0.394582
O            -0.302822      0.257901     -0.350324
O             0.200000      0.247780     -0.404884
O             0.294923      0.091218      0.353187
O            -0.047431      0.089412     -0.369954
O            -0.457204      0.231366      0.398594
O             0.049327      0.265423      0.370116
O             0.449541      0.077758     -0.382212
Zn            0.169118      0.442088     -0.311932
Zn            0.399839     -0.424037      0.487717
Fe           -0.160503     -0.419052      0.278442
Fe           -0.353819      0.412360     -0.483047
H            -0.073636      0.408917     -0.454695
H            -0.417538     -0.407246      0.285122
H             0.086722     -0.403848      0.465641
H             0.427326      0.371619     -0.287760
O            -0.190931      0.404665      0.396853
O            -0.307821     -0.415097     -0.336871
O             0.220377     -0.390621     -0.421231
O             0.306016      0.403136      0.328077
O            -0.035224      0.425828     -0.361730
O            -0.430599     -0.409187      0.389963
O             0.048421     -0.402291      0.366566
O             0.446769      0.397478     -0.385775
H             0.236905     -0.304457      0.414140
H             0.057265      0.355259     -0.117236