data_nwchem_pspw

_audit_creation_date   Tue May  9 08:12:21 2023
_audit_creation_method    generated by PSPW module of NWChem


_cell_length_a            10.0667
_cell_length_b             9.1552
_cell_length_c             9.2041
_cell_angle_alpha         90.0000
_cell_angle_beta          90.0000
_cell_angle_gamma         90.0000

_symmetry_space_group_name_H-M     P1  

loop_
_atom_site_type_symbol
_atom_site_fract_x
_atom_site_fract_y
_atom_site_fract_z
Fe            0.146735     -0.250000      0.224756
Fe            0.353175     -0.083327     -0.025375
Fe           -0.146825     -0.083327     -0.224625
Fe           -0.353265     -0.250000      0.025244
H            -0.085221     -0.250000      0.049134
H            -0.414737     -0.083030     -0.201101
H             0.085263     -0.083030     -0.048899
H             0.414779     -0.250000      0.200866
O            -0.196748     -0.250000     -0.095276
O            -0.303195     -0.083277      0.154599
O             0.196805     -0.083277      0.095401
O             0.303252     -0.250000     -0.154724
O            -0.053396     -0.250000      0.148894
O            -0.446594     -0.082953     -0.101355
O             0.053406     -0.082954     -0.148645
O             0.446604     -0.250000      0.101106
Fe            0.146825      0.083327      0.224625
Fe            0.353265      0.250000     -0.025244
Fe           -0.146735      0.250000     -0.224756
Fe           -0.353175      0.083327      0.025375
H            -0.085263      0.083030      0.048899
H            -0.414779      0.250000     -0.200866
H             0.085221      0.250000     -0.049134
H             0.414737      0.083030      0.201101
O            -0.196805      0.083277     -0.095401
O            -0.303252      0.250000      0.154724
O             0.196748      0.250000      0.095276
O             0.303195      0.083277     -0.154599
O            -0.053406      0.082954      0.148645
O            -0.446604      0.250000     -0.101106
O             0.053396      0.250000     -0.148894
O             0.446594      0.082953      0.101355
Fe            0.146825      0.416673      0.224625
Fe            0.353175     -0.416673     -0.025375
Fe           -0.146825     -0.416673     -0.224625
Fe           -0.353175      0.416673      0.025375
H            -0.085263      0.416970      0.048899
H            -0.414737     -0.416970     -0.201101
H             0.085263     -0.416970     -0.048899
H             0.414737      0.416970      0.201101
O            -0.196805      0.416723     -0.095401
O            -0.303195     -0.416723      0.154599
O             0.196805     -0.416723      0.095401
O             0.303195      0.416723     -0.154599
O            -0.053406      0.417047      0.148645
O            -0.446594     -0.417047     -0.101355
O             0.053406     -0.417047     -0.148645
O             0.446594      0.417046      0.101355
Fe            0.146735     -0.250000     -0.275244
Fe            0.353175     -0.083327      0.474625
H            -0.146825     -0.083327      0.275375
Fe           -0.353265     -0.250000     -0.474756
H            -0.085221     -0.250000     -0.450866
H            -0.414737     -0.083030      0.298899
H             0.085263     -0.083030      0.451101
H             0.414779     -0.250000     -0.299134
O            -0.196748     -0.250000      0.404724
O            -0.303195     -0.083277     -0.345401
O             0.196805     -0.083277     -0.404599
O             0.303252     -0.250000      0.345276
O            -0.053396     -0.250000     -0.351106
O            -0.446594     -0.082953      0.398645
O             0.053406     -0.082954      0.351355
O             0.446604     -0.250000     -0.398894
Fe            0.146825      0.083327     -0.275375
Fe            0.353265      0.250000      0.474756
Fe           -0.146735      0.250000      0.275244
Fe           -0.353175      0.083327     -0.474625
H            -0.085263      0.083030     -0.451101
H            -0.414779      0.250000      0.299134
H             0.085221      0.250000      0.450866
H             0.414737      0.083030     -0.298899
O            -0.196805      0.083277      0.404599
O            -0.303252      0.250000     -0.345276
O             0.196748      0.250000     -0.404724
O             0.303195      0.083277      0.345401
O            -0.053406      0.082954     -0.351355
O            -0.446604      0.250000      0.398894
O             0.053396      0.250000      0.351106
O             0.446594      0.082953     -0.398645
Ni            0.146825      0.416673     -0.275375
Fe            0.353175     -0.416673      0.474625
Fe           -0.146825     -0.416673      0.275375
Fe           -0.353175      0.416673     -0.474625
H            -0.085263      0.416970     -0.451101
H            -0.414737     -0.416970      0.298899
H             0.085263     -0.416970      0.451101
H             0.414737      0.416970     -0.298899
O            -0.196805      0.416723      0.404599
O            -0.303195     -0.416723     -0.345401
O             0.196805     -0.416723     -0.404599
O             0.303195      0.416723      0.345401
O            -0.053406      0.417047     -0.351355
O            -0.446594     -0.417047      0.398645
O             0.053406     -0.417047      0.351355
O             0.446594      0.417046     -0.398645
H             0.200391      0.365788     -0.048061
H            -0.106825     -0.003327      0.295375
H            -0.166825     -0.223327      0.185375
data_nwchem_pspw

_audit_creation_date   Tue May  9 08:15:59 2023
_audit_creation_method    generated by PSPW module of NWChem


_cell_length_a            10.0667
_cell_length_b             9.1552
_cell_length_c             9.2041
_cell_angle_alpha         90.0000
_cell_angle_beta          90.0000
_cell_angle_gamma         90.0000

_symmetry_space_group_name_H-M     P1  

loop_
_atom_site_type_symbol
_atom_site_fract_x
_atom_site_fract_y
_atom_site_fract_z
Fe            0.146735     -0.250000      0.224756
Fe            0.353175     -0.083327     -0.025375
Fe           -0.146825     -0.083327     -0.224625
Fe           -0.353265     -0.250000      0.025244
H            -0.085221     -0.250000      0.049134
H            -0.414737     -0.083030     -0.201101
H             0.085263     -0.083030     -0.048899
H             0.414779     -0.250000      0.200866
O            -0.196748     -0.250000     -0.095276
O            -0.303195     -0.083277      0.154599
O             0.196805     -0.083277      0.095401
O             0.303252     -0.250000     -0.154724
O            -0.053396     -0.250000      0.148894
O            -0.446594     -0.082953     -0.101355
O             0.053406     -0.082954     -0.148645
O             0.446604     -0.250000      0.101106
Fe            0.146825      0.083327      0.224625
Fe            0.353265      0.250000     -0.025244
Fe           -0.146735      0.250000     -0.224756
Fe           -0.353175      0.083327      0.025375
H            -0.085263      0.083030      0.048899
H            -0.414779      0.250000     -0.200866
H             0.085221      0.250000     -0.049134
H             0.414737      0.083030      0.201101
O            -0.196805      0.083277     -0.095401
O            -0.303252      0.250000      0.154724
O             0.196748      0.250000      0.095276
O             0.303195      0.083277     -0.154599
O            -0.053406      0.082954      0.148645
O            -0.446604      0.250000     -0.101106
O             0.053396      0.250000     -0.148894
O             0.446594      0.082953      0.101355
Fe            0.146825      0.416673      0.224625
Fe            0.353175     -0.416673     -0.025375
Fe           -0.146825     -0.416673     -0.224625
Fe           -0.353175      0.416673      0.025375
H            -0.085263      0.416970      0.048899
H            -0.414737     -0.416970     -0.201101
H             0.085263     -0.416970     -0.048899
H             0.414737      0.416970      0.201101
O            -0.196805      0.416723     -0.095401
O            -0.303195     -0.416723      0.154599
O             0.196805     -0.416723      0.095401
O             0.303195      0.416723     -0.154599
O            -0.053406      0.417047      0.148645
O            -0.446594     -0.417047     -0.101355
O             0.053406     -0.417047     -0.148645
O             0.446594      0.417046      0.101355
Fe            0.146735     -0.250000     -0.275244
Fe            0.353175     -0.083327      0.474625
H            -0.146825     -0.083327      0.275375
Fe           -0.353265     -0.250000     -0.474756
H            -0.085221     -0.250000     -0.450866
H            -0.414737     -0.083030      0.298899
H             0.085263     -0.083030      0.451101
H             0.414779     -0.250000     -0.299134
O            -0.196748     -0.250000      0.404724
O            -0.303195     -0.083277     -0.345401
O             0.196805     -0.083277     -0.404599
O             0.303252     -0.250000      0.345276
O            -0.053396     -0.250000     -0.351106
O            -0.446594     -0.082953      0.398645
O             0.053406     -0.082954      0.351355
O             0.446604     -0.250000     -0.398894
Fe            0.146825      0.083327     -0.275375
Fe            0.353265      0.250000      0.474756
Fe           -0.146735      0.250000      0.275244
Fe           -0.353175      0.083327     -0.474625
H            -0.085263      0.083030     -0.451101
H            -0.414779      0.250000      0.299134
H             0.085221      0.250000      0.450866
H             0.414737      0.083030     -0.298899
O            -0.196805      0.083277      0.404599
O            -0.303252      0.250000     -0.345276
O             0.196748      0.250000     -0.404724
O             0.303195      0.083277      0.345401
O            -0.053406      0.082954     -0.351355
O            -0.446604      0.250000      0.398894
O             0.053396      0.250000      0.351106
O             0.446594      0.082953     -0.398645
Ni            0.146825      0.416673     -0.275375
Fe            0.353175     -0.416673      0.474625
Fe           -0.146825     -0.416673      0.275375
Fe           -0.353175      0.416673     -0.474625
H            -0.085263      0.416970     -0.451101
H            -0.414737     -0.416970      0.298899
H             0.085263     -0.416970      0.451101
H             0.414737      0.416970     -0.298899
O            -0.196805      0.416723      0.404599
O            -0.303195     -0.416723     -0.345401
O             0.196805     -0.416723     -0.404599
O             0.303195      0.416723      0.345401
O            -0.053406      0.417047     -0.351355
O            -0.446594     -0.417047      0.398645
O             0.053406     -0.417047      0.351355
O             0.446594      0.417046     -0.398645
H             0.200391      0.365788     -0.048061
H            -0.106825     -0.003327      0.295375
H            -0.166825     -0.223327      0.185375
data_nwchem_pspw

_audit_creation_date   Tue May  9 08:27:15 2023
_audit_creation_method    generated by PSPW module of NWChem


_cell_length_a            10.0667
_cell_length_b             9.1552
_cell_length_c             9.2041
_cell_angle_alpha         90.0000
_cell_angle_beta          90.0000
_cell_angle_gamma         90.0000

_symmetry_space_group_name_H-M     P1  

loop_
_atom_site_type_symbol
_atom_site_fract_x
_atom_site_fract_y
_atom_site_fract_z
Fe            0.146735     -0.250000      0.224756
Fe            0.353175     -0.083327     -0.025375
Fe           -0.146825     -0.083327     -0.224625
Fe           -0.353265     -0.250000      0.025244
H            -0.085221     -0.250000      0.049134
H            -0.414737     -0.083030     -0.201101
H             0.085263     -0.083030     -0.048899
H             0.414779     -0.250000      0.200866
O            -0.196748     -0.250000     -0.095276
O            -0.303195     -0.083277      0.154599
O             0.196805     -0.083277      0.095401
O             0.303252     -0.250000     -0.154724
O            -0.053396     -0.250000      0.148894
O            -0.446594     -0.082953     -0.101355
O             0.053406     -0.082954     -0.148645
O             0.446604     -0.250000      0.101106
Fe            0.146825      0.083327      0.224625
Fe            0.353265      0.250000     -0.025244
Fe           -0.146735      0.250000     -0.224756
Fe           -0.353175      0.083327      0.025375
H            -0.085263      0.083030      0.048899
H            -0.414779      0.250000     -0.200866
H             0.085221      0.250000     -0.049134
H             0.414737      0.083030      0.201101
O            -0.196805      0.083277     -0.095401
O            -0.303252      0.250000      0.154724
O             0.196748      0.250000      0.095276
O             0.303195      0.083277     -0.154599
O            -0.053406      0.082954      0.148645
O            -0.446604      0.250000     -0.101106
O             0.053396      0.250000     -0.148894
O             0.446594      0.082953      0.101355
Fe            0.146825      0.416673      0.224625
Fe            0.353175     -0.416673     -0.025375
Fe           -0.146825     -0.416673     -0.224625
Fe           -0.353175      0.416673      0.025375
H            -0.085263      0.416970      0.048899
H            -0.414737     -0.416970     -0.201101
H             0.085263     -0.416970     -0.048899
H             0.414737      0.416970      0.201101
O            -0.196805      0.416723     -0.095401
O            -0.303195     -0.416723      0.154599
O             0.196805     -0.416723      0.095401
O             0.303195      0.416723     -0.154599
O            -0.053406      0.417047      0.148645
O            -0.446594     -0.417047     -0.101355
O             0.053406     -0.417047     -0.148645
O             0.446594      0.417046      0.101355
Fe            0.146735     -0.250000     -0.275244
Fe            0.353175     -0.083327      0.474625
H            -0.146825     -0.083327      0.275375
Fe           -0.353265     -0.250000     -0.474756
H            -0.085221     -0.250000     -0.450866
H            -0.414737     -0.083030      0.298899
H             0.085263     -0.083030      0.451101
H             0.414779     -0.250000     -0.299134
O            -0.196748     -0.250000      0.404724
O            -0.303195     -0.083277     -0.345401
O             0.196805     -0.083277     -0.404599
O             0.303252     -0.250000      0.345276
O            -0.053396     -0.250000     -0.351106
O            -0.446594     -0.082953      0.398645
O             0.053406     -0.082954      0.351355
O             0.446604     -0.250000     -0.398894
Fe            0.146825      0.083327     -0.275375
Fe            0.353265      0.250000      0.474756
Fe           -0.146735      0.250000      0.275244
Fe           -0.353175      0.083327     -0.474625
H            -0.085263      0.083030     -0.451101
H            -0.414779      0.250000      0.299134
H             0.085221      0.250000      0.450866
H             0.414737      0.083030     -0.298899
O            -0.196805      0.083277      0.404599
O            -0.303252      0.250000     -0.345276
O             0.196748      0.250000     -0.404724
O             0.303195      0.083277      0.345401
O            -0.053406      0.082954     -0.351355
O            -0.446604      0.250000      0.398894
O             0.053396      0.250000      0.351106
O             0.446594      0.082953     -0.398645
Ni            0.146825      0.416673     -0.275375
Fe            0.353175     -0.416673      0.474625
Fe           -0.146825     -0.416673      0.275375
Fe           -0.353175      0.416673     -0.474625
H            -0.085263      0.416970     -0.451101
H            -0.414737     -0.416970      0.298899
H             0.085263     -0.416970      0.451101
H             0.414737      0.416970     -0.298899
O            -0.196805      0.416723      0.404599
O            -0.303195     -0.416723     -0.345401
O             0.196805     -0.416723     -0.404599
O             0.303195      0.416723      0.345401
O            -0.053406      0.417047     -0.351355
O            -0.446594     -0.417047      0.398645
O             0.053406     -0.417047      0.351355
O             0.446594      0.417046     -0.398645
H             0.200391      0.365788     -0.048061
H            -0.106825     -0.003327      0.295375
H            -0.166825     -0.223327      0.185375
data_nwchem_pspw

_audit_creation_date   Tue May  9 08:28:50 2023
_audit_creation_method    generated by PSPW module of NWChem


_cell_length_a            10.0667
_cell_length_b             9.1552
_cell_length_c             9.2041
_cell_angle_alpha         90.0000
_cell_angle_beta          90.0000
_cell_angle_gamma         90.0000

_symmetry_space_group_name_H-M     P1  

loop_
_atom_site_type_symbol
_atom_site_fract_x
_atom_site_fract_y
_atom_site_fract_z
Fe            0.146735     -0.250000      0.224756
Fe            0.353175     -0.083327     -0.025375
Fe           -0.146825     -0.083327     -0.224625
Fe           -0.353265     -0.250000      0.025244
H            -0.085221     -0.250000      0.049134
H            -0.414737     -0.083030     -0.201101
H             0.085263     -0.083030     -0.048899
H             0.414779     -0.250000      0.200866
O            -0.196748     -0.250000     -0.095276
O            -0.303195     -0.083277      0.154599
O             0.196805     -0.083277      0.095401
O             0.303252     -0.250000     -0.154724
O            -0.053396     -0.250000      0.148894
O            -0.446594     -0.082953     -0.101355
O             0.053406     -0.082954     -0.148645
O             0.446604     -0.250000      0.101106
Fe            0.146825      0.083327      0.224625
Fe            0.353265      0.250000     -0.025244
Fe           -0.146735      0.250000     -0.224756
Fe           -0.353175      0.083327      0.025375
H            -0.085263      0.083030      0.048899
H            -0.414779      0.250000     -0.200866
H             0.085221      0.250000     -0.049134
H             0.414737      0.083030      0.201101
O            -0.196805      0.083277     -0.095401
O            -0.303252      0.250000      0.154724
O             0.196748      0.250000      0.095276
O             0.303195      0.083277     -0.154599
O            -0.053406      0.082954      0.148645
O            -0.446604      0.250000     -0.101106
O             0.053396      0.250000     -0.148894
O             0.446594      0.082953      0.101355
Fe            0.146825      0.416673      0.224625
Fe            0.353175     -0.416673     -0.025375
Fe           -0.146825     -0.416673     -0.224625
Fe           -0.353175      0.416673      0.025375
H            -0.085263      0.416970      0.048899
H            -0.414737     -0.416970     -0.201101
H             0.085263     -0.416970     -0.048899
H             0.414737      0.416970      0.201101
O            -0.196805      0.416723     -0.095401
O            -0.303195     -0.416723      0.154599
O             0.196805     -0.416723      0.095401
O             0.303195      0.416723     -0.154599
O            -0.053406      0.417047      0.148645
O            -0.446594     -0.417047     -0.101355
O             0.053406     -0.417047     -0.148645
O             0.446594      0.417046      0.101355
Fe            0.146735     -0.250000     -0.275244
Fe            0.353175     -0.083327      0.474625
H            -0.146825     -0.083327      0.275375
Fe           -0.353265     -0.250000     -0.474756
H            -0.085221     -0.250000     -0.450866
H            -0.414737     -0.083030      0.298899
H             0.085263     -0.083030      0.451101
H             0.414779     -0.250000     -0.299134
O            -0.196748     -0.250000      0.404724
O            -0.303195     -0.083277     -0.345401
O             0.196805     -0.083277     -0.404599
O             0.303252     -0.250000      0.345276
O            -0.053396     -0.250000     -0.351106
O            -0.446594     -0.082953      0.398645
O             0.053406     -0.082954      0.351355
O             0.446604     -0.250000     -0.398894
Fe            0.146825      0.083327     -0.275375
Fe            0.353265      0.250000      0.474756
Fe           -0.146735      0.250000      0.275244
Fe           -0.353175      0.083327     -0.474625
H            -0.085263      0.083030     -0.451101
H            -0.414779      0.250000      0.299134
H             0.085221      0.250000      0.450866
H             0.414737      0.083030     -0.298899
O            -0.196805      0.083277      0.404599
O            -0.303252      0.250000     -0.345276
O             0.196748      0.250000     -0.404724
O             0.303195      0.083277      0.345401
O            -0.053406      0.082954     -0.351355
O            -0.446604      0.250000      0.398894
O             0.053396      0.250000      0.351106
O             0.446594      0.082953     -0.398645
Ni            0.146825      0.416673     -0.275375
Fe            0.353175     -0.416673      0.474625
Fe           -0.146825     -0.416673      0.275375
Fe           -0.353175      0.416673     -0.474625
H            -0.085263      0.416970     -0.451101
H            -0.414737     -0.416970      0.298899
H             0.085263     -0.416970      0.451101
H             0.414737      0.416970     -0.298899
O            -0.196805      0.416723      0.404599
O            -0.303195     -0.416723     -0.345401
O             0.196805     -0.416723     -0.404599
O             0.303195      0.416723      0.345401
O            -0.053406      0.417047     -0.351355
O            -0.446594     -0.417047      0.398645
O             0.053406     -0.417047      0.351355
O             0.446594      0.417046     -0.398645
H             0.200391      0.365788     -0.048061
H            -0.106825     -0.003327      0.295375
H            -0.166825     -0.223327      0.185375
data_nwchem_pspw

_audit_creation_date   Tue May  9 08:48:00 2023
_audit_creation_method    generated by PSPW module of NWChem


_cell_length_a            10.0667
_cell_length_b             9.1552
_cell_length_c             9.2041
_cell_angle_alpha         90.0000
_cell_angle_beta          90.0000
_cell_angle_gamma         90.0000

_symmetry_space_group_name_H-M     P1  

loop_
_atom_site_type_symbol
_atom_site_fract_x
_atom_site_fract_y
_atom_site_fract_z
Fe            0.146735     -0.250000      0.224756
Fe            0.353175     -0.083327     -0.025375
Fe           -0.146825     -0.083327     -0.224625
Fe           -0.353265     -0.250000      0.025244
H            -0.085221     -0.250000      0.049134
H            -0.414737     -0.083030     -0.201101
H             0.085263     -0.083030     -0.048899
H             0.414779     -0.250000      0.200866
O            -0.196748     -0.250000     -0.095276
O            -0.303195     -0.083277      0.154599
O             0.196805     -0.083277      0.095401
O             0.303252     -0.250000     -0.154724
O            -0.053396     -0.250000      0.148894
O            -0.446594     -0.082953     -0.101355
O             0.053406     -0.082954     -0.148645
O             0.446604     -0.250000      0.101106
Fe            0.146825      0.083327      0.224625
Fe            0.353265      0.250000     -0.025244
Fe           -0.146735      0.250000     -0.224756
Fe           -0.353175      0.083327      0.025375
H            -0.085263      0.083030      0.048899
H            -0.414779      0.250000     -0.200866
H             0.085221      0.250000     -0.049134
H             0.414737      0.083030      0.201101
O            -0.196805      0.083277     -0.095401
O            -0.303252      0.250000      0.154724
O             0.196748      0.250000      0.095276
O             0.303195      0.083277     -0.154599
O            -0.053406      0.082954      0.148645
O            -0.446604      0.250000     -0.101106
O             0.053396      0.250000     -0.148894
O             0.446594      0.082953      0.101355
Fe            0.146825      0.416673      0.224625
Fe            0.353175     -0.416673     -0.025375
Fe           -0.146825     -0.416673     -0.224625
Fe           -0.353175      0.416673      0.025375
H            -0.085263      0.416970      0.048899
H            -0.414737     -0.416970     -0.201101
H             0.085263     -0.416970     -0.048899
H             0.414737      0.416970      0.201101
O            -0.196805      0.416723     -0.095401
O            -0.303195     -0.416723      0.154599
O             0.196805     -0.416723      0.095401
O             0.303195      0.416723     -0.154599
O            -0.053406      0.417047      0.148645
O            -0.446594     -0.417047     -0.101355
O             0.053406     -0.417047     -0.148645
O             0.446594      0.417046      0.101355
Fe            0.146735     -0.250000     -0.275244
Fe            0.353175     -0.083327      0.474625
H            -0.146825     -0.083327      0.275375
Fe           -0.353265     -0.250000     -0.474756
H            -0.085221     -0.250000     -0.450866
H            -0.414737     -0.083030      0.298899
H             0.085263     -0.083030      0.451101
H             0.414779     -0.250000     -0.299134
O            -0.196748     -0.250000      0.404724
O            -0.303195     -0.083277     -0.345401
O             0.196805     -0.083277     -0.404599
O             0.303252     -0.250000      0.345276
O            -0.053396     -0.250000     -0.351106
O            -0.446594     -0.082953      0.398645
O             0.053406     -0.082954      0.351355
O             0.446604     -0.250000     -0.398894
Fe            0.146825      0.083327     -0.275375
Fe            0.353265      0.250000      0.474756
Fe           -0.146735      0.250000      0.275244
Fe           -0.353175      0.083327     -0.474625
H            -0.085263      0.083030     -0.451101
H            -0.414779      0.250000      0.299134
H             0.085221      0.250000      0.450866
H             0.414737      0.083030     -0.298899
O            -0.196805      0.083277      0.404599
O            -0.303252      0.250000     -0.345276
O             0.196748      0.250000     -0.404724
O             0.303195      0.083277      0.345401
O            -0.053406      0.082954     -0.351355
O            -0.446604      0.250000      0.398894
O             0.053396      0.250000      0.351106
O             0.446594      0.082953     -0.398645
Ni            0.146825      0.416673     -0.275375
Fe            0.353175     -0.416673      0.474625
Fe           -0.146825     -0.416673      0.275375
Fe           -0.353175      0.416673     -0.474625
H            -0.085263      0.416970     -0.451101
H            -0.414737     -0.416970      0.298899
H             0.085263     -0.416970      0.451101
H             0.414737      0.416970     -0.298899
O            -0.196805      0.416723      0.404599
O            -0.303195     -0.416723     -0.345401
O             0.196805     -0.416723     -0.404599
O             0.303195      0.416723      0.345401
O            -0.053406      0.417047     -0.351355
O            -0.446594     -0.417047      0.398645
O             0.053406     -0.417047      0.351355
O             0.446594      0.417046     -0.398645
H             0.200391      0.365788     -0.048061
H            -0.106825     -0.003327      0.295375
H            -0.166825     -0.223327      0.185375
data_nwchem_pspw

_audit_creation_date   Tue May  9 11:28:27 2023
_audit_creation_method    generated by PSPW module of NWChem


_cell_length_a            10.0667
_cell_length_b             9.1552
_cell_length_c             9.2041
_cell_angle_alpha         90.0000
_cell_angle_beta          90.0000
_cell_angle_gamma         90.0000

_symmetry_space_group_name_H-M     P1  

loop_
_atom_site_type_symbol
_atom_site_fract_x
_atom_site_fract_y
_atom_site_fract_z
Fe            0.132171     -0.250402      0.223903
Fe            0.350184     -0.089540     -0.039695
Fe           -0.140379     -0.088225     -0.218791
Fe           -0.363615     -0.255316      0.031004
H            -0.099319     -0.254117      0.049819
H            -0.401375     -0.077032     -0.188705
H             0.108435     -0.057948     -0.037096
H             0.404864     -0.250909      0.196531
O            -0.191434     -0.256059     -0.080928
O            -0.319238     -0.100778      0.158533
O             0.186325     -0.071200      0.095262
O             0.303616     -0.260483     -0.164620
O            -0.054835     -0.265567      0.145374
O            -0.446795     -0.087174     -0.097289
O             0.062617     -0.092087     -0.144535
O             0.430458     -0.251938      0.095446
Fe            0.144471      0.085991      0.238958
Fe            0.355814      0.235287     -0.018408
Fe           -0.131252      0.243003     -0.226768
Fe           -0.356705      0.074048      0.034268
H            -0.097650      0.085100      0.020381
H            -0.396123      0.265860     -0.186929
H             0.086940      0.218237     -0.043144
H             0.402991      0.077729      0.201241
O            -0.185655      0.084729     -0.088483
O            -0.307472      0.235371      0.157952
O             0.195361      0.250144      0.089722
O             0.308011      0.076443     -0.166411
O            -0.047536      0.082072      0.133107
O            -0.445597      0.247457     -0.094770
O             0.063232      0.240384     -0.143559
O             0.452470      0.075338      0.100670
Fe            0.143744      0.421049      0.228280
Fe            0.354083     -0.415323     -0.023216
Fe           -0.139439     -0.429764     -0.227608
Fe           -0.356963      0.410762      0.022325
H            -0.080537      0.393500      0.046738
H            -0.415944     -0.429407     -0.207843
H             0.065062     -0.415181     -0.052315
H             0.405756      0.423853      0.203629
O            -0.188583      0.411559     -0.097084
O            -0.321303     -0.438260      0.158842
O             0.191902     -0.429431      0.095175
O             0.292641      0.404237     -0.149243
O            -0.056140      0.416489      0.147748
O            -0.458787     -0.426326     -0.114327
O             0.053391     -0.416402     -0.154473
O             0.438639      0.416188      0.102319
Fe            0.153662     -0.252314     -0.287357
Fe            0.359209     -0.077424      0.464258
H            -0.240248     -0.189765      0.298933
Fe           -0.357743     -0.237505     -0.468684
H            -0.081357     -0.249641     -0.462859
H            -0.386309     -0.075016      0.295472
H             0.088871     -0.078546      0.455248
H             0.419358     -0.230279     -0.304756
O            -0.201766     -0.227606      0.380771
O            -0.298642     -0.083485     -0.338894
O             0.196541     -0.079284     -0.417245
O             0.302728     -0.242215      0.328079
O            -0.055296     -0.248031     -0.363134
O            -0.436323     -0.064785      0.390123
O             0.048989     -0.072733      0.359918
O             0.457394     -0.226833     -0.403577
Fe            0.146123      0.086360     -0.283400
Fe            0.356472      0.258594      0.486938
Fe           -0.142641      0.251047      0.275525
Fe           -0.363745      0.089790     -0.452908
H            -0.086708      0.073969     -0.448191
H            -0.402158      0.256835      0.311134
H             0.075249      0.245862      0.452221
H             0.411040      0.077210     -0.291916
O            -0.206183      0.094651      0.413544
O            -0.305168      0.260021     -0.322744
O             0.191210      0.247408     -0.406852
O             0.318955      0.092620      0.341000
O            -0.052266      0.077810     -0.350887
O            -0.438929      0.259920      0.409116
O             0.051203      0.253023      0.351477
O             0.449557      0.094526     -0.389661
Ni            0.131847      0.407012     -0.295644
Fe            0.366445     -0.411182      0.475348
Fe           -0.145424     -0.405561      0.259974
Fe           -0.341638      0.424356     -0.467981
H            -0.100414      0.425695     -0.447691
H            -0.410451     -0.418631      0.294280
H             0.098064     -0.420527      0.462329
H             0.412668      0.432652     -0.291593
O            -0.195186      0.431044      0.394965
O            -0.305298     -0.406435     -0.341634
O             0.196173     -0.415602     -0.416809
O             0.305628      0.422393      0.346005
O            -0.062525      0.411366     -0.351087
O            -0.438672     -0.402355      0.398000
O             0.047445     -0.429367      0.362452
O             0.453805      0.416735     -0.383474
H             0.204026      0.434153     -0.081849
H            -0.168886      0.000619      0.383960
H            -0.070017     -0.018706      0.150879
data_nwchem_pspw

_audit_creation_date   Tue May  9 14:14:16 2023
_audit_creation_method    generated by PSPW module of NWChem


_cell_length_a            10.0667
_cell_length_b             9.1552
_cell_length_c             9.2041
_cell_angle_alpha         90.0000
_cell_angle_beta          90.0000
_cell_angle_gamma         90.0000

_symmetry_space_group_name_H-M     P1  

loop_
_atom_site_type_symbol
_atom_site_fract_x
_atom_site_fract_y
_atom_site_fract_z
Fe            0.136007     -0.249598      0.225567
Fe            0.348883     -0.075077     -0.034416
Fe           -0.136085     -0.081210     -0.219893
Fe           -0.355512     -0.238905      0.033533
H            -0.068597     -0.303147      0.049323
H            -0.429656     -0.096441     -0.197048
H             0.072207     -0.073801     -0.052789
H             0.405716     -0.249246      0.211230
O            -0.191689     -0.247713     -0.089356
O            -0.304701     -0.081789      0.172546
O             0.186420     -0.085981      0.089493
O             0.320083     -0.237348     -0.169663
O            -0.046827     -0.268819      0.142698
O            -0.448991     -0.085776     -0.092278
O             0.055785     -0.083090     -0.151506
O             0.449326     -0.245693      0.113987
Fe            0.133982      0.076300      0.235120
Fe            0.357311      0.254368     -0.006633
Fe           -0.143444      0.266269     -0.222372
Fe           -0.361924      0.089468      0.056883
H            -0.112688      0.088493      0.011148
H            -0.410818      0.253302     -0.202628
H             0.072138      0.268892     -0.063165
H             0.404555      0.073981      0.203484
O            -0.182271      0.091026     -0.075511
O            -0.304973      0.255647      0.155859
O             0.184536      0.250815      0.102753
O             0.309009      0.101352     -0.176478
O            -0.049905      0.076891      0.135803
O            -0.451280      0.262810     -0.101654
O             0.046722      0.257760     -0.157137
O             0.434022      0.082228      0.102619
Fe            0.146269      0.413036      0.242527
Fe            0.358367     -0.397895     -0.024369
Fe           -0.145040     -0.413746     -0.232592
Fe           -0.359185      0.427757      0.022114
H            -0.087065      0.411879      0.046844
H            -0.426821     -0.399116     -0.211522
H             0.079265     -0.409476     -0.045484
H             0.427669      0.415948      0.214009
O            -0.187010      0.431946     -0.091283
O            -0.304694     -0.420654      0.167430
O             0.197719     -0.425393      0.083995
O             0.295398      0.420622     -0.131148
O            -0.044486      0.399878      0.141117
O            -0.444810     -0.409547     -0.108841
O             0.055549     -0.403251     -0.148554
O             0.449015      0.426064      0.111520
Fe            0.143143     -0.242715     -0.288861
Fe            0.350842     -0.096999      0.469833
H            -0.218955     -0.187712      0.304413
Fe           -0.360300     -0.254125     -0.466178
H            -0.083006     -0.233178     -0.473052
H            -0.400070     -0.072170      0.299713
H             0.098952     -0.077442      0.449756
H             0.394619     -0.268809     -0.309976
O            -0.201730     -0.249314      0.393691
O            -0.306357     -0.092415     -0.340962
O             0.192258     -0.079301     -0.406498
O             0.311873     -0.258017      0.334909
O            -0.058609     -0.237754     -0.367698
O            -0.439686     -0.090806      0.397103
O             0.050048     -0.097253      0.360204
O             0.442178     -0.263246     -0.403207
Fe            0.154442      0.103361     -0.289089
Fe            0.358521      0.238594      0.478294
Fe           -0.144367      0.243355      0.267783
Fe           -0.362132      0.063744     -0.467021
H            -0.075997      0.099693     -0.449569
H            -0.408078      0.244822      0.295411
H             0.100021      0.246272      0.449454
H             0.403493      0.074641     -0.307220
O            -0.193237      0.086539      0.400993
O            -0.318558      0.232379     -0.331896
O             0.187195      0.251377     -0.425766
O             0.300188      0.069226      0.346806
O            -0.049452      0.098667     -0.342475
O            -0.435161      0.230365      0.396338
O             0.050227      0.247488      0.354287
O             0.447150      0.062164     -0.407510
Ni            0.138939      0.415876     -0.296066
Fe            0.352187     -0.427383      0.467099
Fe           -0.128711     -0.428141      0.276329
Fe           -0.345661      0.406113     -0.481155
H            -0.080600      0.416675     -0.462381
H            -0.404546     -0.417474      0.291305
H             0.087869     -0.400342      0.458008
H             0.410053      0.406180     -0.295152
O            -0.177482      0.406501      0.408389
O            -0.284549     -0.427094     -0.367703
O             0.190346     -0.421645     -0.424441
O             0.316171      0.398550      0.336703
O            -0.050200      0.430624     -0.362125
O            -0.437802     -0.421367      0.391901
O             0.051760     -0.400466      0.356265
O             0.434845      0.411822     -0.393378
H             0.222047      0.425090     -0.073914
H            -0.162847     -0.011621      0.378483
H            -0.079939     -0.016611      0.157135
data_nwchem_pspw

_audit_creation_date   Tue May  9 17:41:54 2023
_audit_creation_method    generated by PSPW module of NWChem


_cell_length_a            10.0667
_cell_length_b             9.1552
_cell_length_c             9.2041
_cell_angle_alpha         90.0000
_cell_angle_beta          90.0000
_cell_angle_gamma         90.0000

_symmetry_space_group_name_H-M     P1  

loop_
_atom_site_type_symbol
_atom_site_fract_x
_atom_site_fract_y
_atom_site_fract_z
Fe            0.140441     -0.227254      0.229626
Fe            0.350480     -0.093601     -0.026482
Fe           -0.146397     -0.082955     -0.228152
Fe           -0.351020     -0.263930      0.022309
H            -0.083053     -0.237464      0.045375
H            -0.410796     -0.086659     -0.202385
H             0.081826     -0.099330     -0.040402
H             0.410082     -0.255234      0.206791
O            -0.191572     -0.253267     -0.094885
O            -0.296201     -0.101118      0.158166
O             0.188852     -0.088781      0.089869
O             0.304861     -0.247882     -0.161047
O            -0.045768     -0.253633      0.140210
O            -0.445463     -0.088618     -0.097794
O             0.052279     -0.093813     -0.150543
O             0.450358     -0.245857      0.101721
Fe            0.140301      0.088650      0.227064
Fe            0.378640      0.238946     -0.010225
Fe           -0.139839      0.253465     -0.228062
Fe           -0.360866      0.065170      0.052147
H            -0.121583      0.076405      0.000722
H            -0.379999      0.231770     -0.188821
H             0.073366      0.259716     -0.055041
H             0.407534      0.080862      0.210854
O            -0.188002      0.089391     -0.083152
O            -0.299017      0.242210      0.153920
O             0.204789      0.255850      0.088016
O             0.304605      0.090174     -0.147250
O            -0.045642      0.091798      0.139907
O            -0.427257      0.233343     -0.095548
O             0.055986      0.246286     -0.154284
O             0.443188      0.073335      0.113278
Fe            0.148971      0.430401      0.211450
Fe            0.366040     -0.410260     -0.022129
Fe           -0.140101     -0.418910     -0.222210
Fe           -0.336711      0.404699      0.016587
H            -0.080148      0.412807      0.042609
H            -0.409572     -0.422172     -0.215233
H             0.078036     -0.389907     -0.043265
H             0.437484      0.415588      0.207446
O            -0.187051      0.400648     -0.100690
O            -0.301376     -0.434283      0.149131
O             0.212389     -0.397645      0.103986
O             0.302086      0.394171     -0.134795
O            -0.057431      0.417158      0.144319
O            -0.442674     -0.433209     -0.115388
O             0.055620     -0.413797     -0.143341
O             0.460873      0.418203      0.106625
Fe            0.144200     -0.262051     -0.283364
Fe            0.351091     -0.078670      0.477524
H            -0.232841     -0.191772      0.316233
Fe           -0.358452     -0.258007     -0.466234
H            -0.077555     -0.220099     -0.455815
H            -0.401745     -0.096019      0.298498
H             0.098507     -0.069715      0.449939
H             0.409352     -0.245379     -0.309668
O            -0.204661     -0.255338      0.395713
O            -0.316221     -0.082806     -0.334531
O             0.189897     -0.083270     -0.390961
O             0.306768     -0.239918      0.339422
O            -0.057595     -0.245370     -0.355722
O            -0.444474     -0.099199      0.393748
O             0.046814     -0.068172      0.362782
O             0.445471     -0.247443     -0.406821
Fe            0.138486      0.085268     -0.262220
Fe            0.343049      0.265679      0.474096
Fe           -0.146850      0.256723      0.277812
Fe           -0.370537      0.086547     -0.465511
H            -0.089267      0.097170     -0.451919
H            -0.409611      0.224411      0.313706
H             0.081676      0.258663      0.450491
H             0.418585      0.073929     -0.288534
O            -0.191874      0.088226      0.406066
O            -0.311575      0.250404     -0.346062
O             0.189501      0.254213     -0.405659
O             0.294728      0.089027      0.357105
O            -0.063556      0.074859     -0.355986
O            -0.451054      0.228905      0.405866
O             0.053873      0.264086      0.352251
O             0.437864      0.070139     -0.391683
Ni            0.132394      0.417402     -0.291167
Fe            0.345086     -0.407576      0.468609
Fe           -0.138064     -0.403798      0.252829
Fe           -0.351691      0.418511     -0.484676
H            -0.108116      0.409661     -0.446564
H            -0.404747     -0.422833      0.299892
H             0.085122     -0.432423      0.449545
H             0.425526      0.396777     -0.294441
O            -0.187482      0.425281      0.409919
O            -0.303881     -0.413332     -0.341612
O             0.183903     -0.422110     -0.426494
O             0.309347      0.428523      0.335806
O            -0.066309      0.415235     -0.348320
O            -0.446326     -0.421205      0.397740
O             0.053870     -0.415513      0.343116
O             0.448341      0.421045     -0.394704
H             0.230338      0.368372     -0.071832
H            -0.135727      0.000853      0.381975
H            -0.060118     -0.009252      0.162347
data_nwchem_pspw

_audit_creation_date   Tue May  9 20:28:02 2023
_audit_creation_method    generated by PSPW module of NWChem


_cell_length_a            10.0667
_cell_length_b             9.1552
_cell_length_c             9.2041
_cell_angle_alpha         90.0000
_cell_angle_beta          90.0000
_cell_angle_gamma         90.0000

_symmetry_space_group_name_H-M     P1  

loop_
_atom_site_type_symbol
_atom_site_fract_x
_atom_site_fract_y
_atom_site_fract_z
Fe            0.122695     -0.247683      0.223729
Fe            0.352607     -0.087858     -0.018116
Fe           -0.142680     -0.071097     -0.231730
Fe           -0.341577     -0.248204      0.041693
H            -0.084536     -0.251747      0.047176
H            -0.412181     -0.099307     -0.196811
H             0.075714     -0.074721     -0.054697
H             0.401460     -0.242341      0.203669
O            -0.182956     -0.223479     -0.080438
O            -0.295792     -0.086903      0.169891
O             0.185790     -0.087509      0.092859
O             0.301326     -0.245839     -0.154272
O            -0.051072     -0.274979      0.143715
O            -0.448061     -0.071752     -0.101999
O             0.058538     -0.079040     -0.153969
O             0.443743     -0.251006      0.108130
Fe            0.138293      0.062272      0.232592
Fe            0.360727      0.237959     -0.015878
Fe           -0.131332      0.268122     -0.237017
Fe           -0.355001      0.081441      0.046210
H            -0.122612      0.073795     -0.001603
H            -0.403569      0.254905     -0.203390
H             0.095803      0.233070     -0.060757
H             0.391010      0.088785      0.228217
O            -0.183472      0.098130     -0.090929
O            -0.303236      0.257582      0.158814
O             0.201343      0.240734      0.099282
O             0.298164      0.092173     -0.157215
O            -0.052476      0.068041      0.140741
O            -0.452555      0.283609     -0.116642
O             0.060612      0.262744     -0.158715
O             0.444874      0.081812      0.124725
Fe            0.151419      0.401822      0.223486
Fe            0.371460     -0.408809     -0.031825
Fe           -0.150938     -0.399837     -0.220944
Fe           -0.357892      0.418749      0.028962
H            -0.081475      0.380455      0.045734
H            -0.387784     -0.417547     -0.208237
H             0.071223     -0.421728     -0.057863
H             0.409763      0.442505      0.186031
O            -0.198608      0.416122     -0.096816
O            -0.296483     -0.434022      0.170150
O             0.204318     -0.429956      0.079740
O             0.284625      0.413837     -0.149865
O            -0.051070      0.407948      0.143511
O            -0.426723     -0.401219     -0.101880
O             0.036221     -0.414511     -0.152994
O             0.455438      0.435246      0.094696
Fe            0.139424     -0.253506     -0.275222
Fe            0.347700     -0.094417      0.469048
H            -0.222796     -0.179463      0.327321
Fe           -0.351638     -0.251937     -0.463121
H            -0.067854     -0.225185     -0.447922
H            -0.402830     -0.084751      0.304150
H             0.096469     -0.081436      0.456317
H             0.429522     -0.246694     -0.309244
O            -0.199771     -0.249021      0.402223
O            -0.302335     -0.088513     -0.341091
O             0.194884     -0.077458     -0.398214
O             0.306995     -0.258641      0.329277
O            -0.060902     -0.244370     -0.347533
O            -0.442854     -0.089494      0.401539
O             0.047919     -0.095726      0.366542
O             0.452756     -0.248667     -0.412335
Fe            0.139900      0.085658     -0.281025
Fe            0.357798      0.250214      0.471575
Fe           -0.131897      0.251123      0.273800
Fe           -0.380557      0.080626     -0.464280
H            -0.096351      0.098405     -0.452986
H            -0.398229      0.241164      0.299455
H             0.104899      0.242717      0.446933
H             0.400246      0.086323     -0.278498
O            -0.186731      0.089978      0.410267
O            -0.303219      0.250833     -0.346748
O             0.190931      0.245333     -0.425627
O             0.319762      0.080828      0.340457
O            -0.054904      0.090058     -0.355504
O            -0.438242      0.233175      0.397467
O             0.063381      0.248178      0.350482
O             0.443846      0.082451     -0.378388
Ni            0.124693      0.430286     -0.288583
Fe            0.359242     -0.427472      0.468359
Fe           -0.135343     -0.425046      0.271565
Fe           -0.354613      0.418385     -0.492555
H            -0.089964      0.446683     -0.463031
H            -0.397568     -0.413370      0.303075
H             0.090717     -0.434732      0.447384
H             0.418397      0.413047     -0.299003
O            -0.189355      0.424286      0.406961
O            -0.317221     -0.425589     -0.335540
O             0.189172     -0.421221     -0.423521
O             0.314026      0.413958      0.338766
O            -0.061020      0.438786     -0.359928
O            -0.446686     -0.415084      0.394398
O             0.056628     -0.435532      0.350341
O             0.442743      0.410743     -0.396451
H             0.222185      0.437448     -0.071069
H            -0.145425      0.006112      0.364382
H            -0.109493     -0.015992      0.169032
data_nwchem_pspw

_audit_creation_date   Tue May  9 23:30:13 2023
_audit_creation_method    generated by PSPW module of NWChem


_cell_length_a            10.0667
_cell_length_b             9.1552
_cell_length_c             9.2041
_cell_angle_alpha         90.0000
_cell_angle_beta          90.0000
_cell_angle_gamma         90.0000

_symmetry_space_group_name_H-M     P1  

loop_
_atom_site_type_symbol
_atom_site_fract_x
_atom_site_fract_y
_atom_site_fract_z
Fe            0.142915     -0.232565      0.235741
Fe            0.354589     -0.089869     -0.019747
Fe           -0.148201     -0.105429     -0.221993
Fe           -0.344910     -0.232324      0.033673
H            -0.100232     -0.244105      0.057019
H            -0.402940     -0.087231     -0.204466
H             0.079203     -0.052574     -0.058439
H             0.402786     -0.266523      0.222450
O            -0.197275     -0.260557     -0.088085
O            -0.317220     -0.076513      0.172459
O             0.194215     -0.066590      0.098316
O             0.308884     -0.257317     -0.151946
O            -0.059476     -0.247231      0.151544
O            -0.443768     -0.078340     -0.102204
O             0.050494     -0.099771     -0.143110
O             0.460656     -0.251259      0.129480
Fe            0.147036      0.099256      0.220568
Fe            0.356647      0.240017     -0.018885
Fe           -0.141881      0.249442     -0.229917
Fe           -0.367034      0.082999      0.029701
H            -0.116450      0.082880     -0.007672
H            -0.397847      0.256156     -0.195408
H             0.083576      0.257982     -0.051818
H             0.407760      0.074291      0.199822
O            -0.189470      0.066685     -0.085464
O            -0.298970      0.258657      0.138477
O             0.196621      0.260084      0.089870
O             0.322681      0.081188     -0.179202
O            -0.044694      0.090486      0.145494
O            -0.440644      0.267701     -0.101301
O             0.051533      0.228569     -0.151775
O             0.446999      0.087557      0.098628
Fe            0.139062      0.429993      0.229451
Fe            0.366882     -0.412507     -0.009697
Fe           -0.128957     -0.423388     -0.221249
Fe           -0.357131      0.423055      0.017541
H            -0.076570      0.415050      0.040454
H            -0.416027     -0.432803     -0.209466
H             0.078843     -0.412666     -0.034682
H             0.404734      0.411137      0.205955
O            -0.195323      0.403299     -0.104770
O            -0.311930     -0.424485      0.150984
O             0.197183     -0.404371      0.107868
O             0.279580      0.405523     -0.145442
O            -0.048093      0.407106      0.145511
O            -0.461301     -0.434467     -0.114214
O             0.064433     -0.433093     -0.133965
O             0.442001      0.418844      0.110762
Fe            0.138454     -0.260496     -0.285875
Fe            0.360925     -0.080254      0.469911
H            -0.148961     -0.156999      0.375631
Fe           -0.362947     -0.240602     -0.469683
H            -0.106803     -0.269370     -0.455856
H            -0.417962     -0.086035      0.307181
H             0.115494     -0.059384      0.445481
H             0.415796     -0.231048     -0.291278
O            -0.179314     -0.244779      0.420216
O            -0.307193     -0.073772     -0.336064
O             0.190393     -0.097915     -0.414064
O             0.319277     -0.246990      0.343552
O            -0.062156     -0.267387     -0.355715
O            -0.443571     -0.086770      0.411113
O             0.069503     -0.071065      0.353764
O             0.436333     -0.236507     -0.390453
Fe            0.146737      0.076795     -0.291849
Fe            0.359620      0.244536      0.483930
Fe           -0.156306      0.249437      0.275275
Fe           -0.352287      0.076718     -0.473362
H            -0.095737      0.085086     -0.446633
H            -0.429593      0.251728      0.285128
H             0.082261      0.264904      0.454217
H             0.402563      0.079985     -0.292307
O            -0.195947      0.064261      0.393325
O            -0.298737      0.250537     -0.356099
O             0.194905      0.237614     -0.415263
O             0.312737      0.085080      0.334233
O            -0.054266      0.083070     -0.346207
O            -0.442915      0.251122      0.391505
O             0.042024      0.267834      0.358649
O             0.458991      0.090075     -0.399912
Ni            0.128331      0.406841     -0.297925
Fe            0.353425     -0.424437      0.474385
Fe           -0.144496     -0.414265      0.254773
Fe           -0.352971      0.421126     -0.470863
H            -0.089291      0.416212     -0.476624
H            -0.419028     -0.395476      0.293610
H             0.091234     -0.404807      0.444244
H             0.430570      0.444248     -0.294530
O            -0.192033      0.422068      0.398234
O            -0.301586     -0.406382     -0.329130
O             0.193976     -0.434966     -0.399533
O             0.298003      0.411568      0.355534
O            -0.058523      0.411656     -0.368427
O            -0.438711     -0.400323      0.394861
O             0.049079     -0.406415      0.352368
O             0.448862      0.418208     -0.395159
H             0.198039      0.415055     -0.088208
H            -0.220441      0.004298      0.310954
H            -0.065622     -0.007686      0.181853
data_nwchem_pspw

_audit_creation_date   Wed May 10 02:29:08 2023
_audit_creation_method    generated by PSPW module of NWChem


_cell_length_a            10.0667
_cell_length_b             9.1552
_cell_length_c             9.2041
_cell_angle_alpha         90.0000
_cell_angle_beta          90.0000
_cell_angle_gamma         90.0000

_symmetry_space_group_name_H-M     P1  

loop_
_atom_site_type_symbol
_atom_site_fract_x
_atom_site_fract_y
_atom_site_fract_z
Fe            0.126855     -0.268034      0.218205
Fe            0.350218     -0.080549     -0.037457
Fe           -0.138660     -0.068569     -0.210360
Fe           -0.352052     -0.231954      0.037115
H            -0.084825     -0.261570      0.045294
H            -0.402635     -0.090991     -0.189767
H             0.103702     -0.086884     -0.063177
H             0.406444     -0.232041      0.206227
O            -0.191315     -0.231626     -0.092879
O            -0.309140     -0.070617      0.179385
O             0.187252     -0.098939      0.096880
O             0.313407     -0.254760     -0.163518
O            -0.057112     -0.249112      0.147782
O            -0.430739     -0.076749     -0.089796
O             0.063728     -0.067853     -0.158859
O             0.454852     -0.245471      0.107716
Fe            0.146852      0.061333      0.214715
Fe            0.357822      0.239564     -0.009756
Fe           -0.146337      0.258519     -0.220287
Fe           -0.355344      0.083696      0.032896
H            -0.083934      0.093270      0.039700
H            -0.418989      0.264509     -0.213804
H             0.079097      0.240086     -0.053924
H             0.405683      0.069661      0.204890
O            -0.187778      0.095937     -0.080978
O            -0.303175      0.244657      0.144285
O             0.192778      0.238593      0.096168
O             0.301870      0.092732     -0.158039
O            -0.049137      0.075142      0.137732
O            -0.442610      0.256292     -0.103517
O             0.049032      0.256817     -0.155711
O             0.447671      0.072693      0.107867
Fe            0.147978      0.403174      0.232631
Fe            0.359220     -0.407852     -0.012742
Fe           -0.159086     -0.399500     -0.217929
Fe           -0.360910      0.426443      0.034882
H            -0.094757      0.417977      0.051832
H            -0.412328     -0.438939     -0.189295
H             0.094417     -0.403949     -0.055098
H             0.400014      0.413750      0.213666
O            -0.200798      0.420381     -0.086079
O            -0.306935     -0.408427      0.162430
O             0.204001     -0.436306      0.100863
O             0.312845      0.412964     -0.140543
O            -0.054627      0.426014      0.144650
O            -0.441635     -0.422338     -0.087861
O             0.050329     -0.417123     -0.147433
O             0.440380      0.410892      0.120205
Fe            0.148776     -0.255252     -0.288366
Fe            0.361975     -0.083302      0.461680
H            -0.194938     -0.178504      0.308238
Fe           -0.361499     -0.244979     -0.479318
H            -0.076276     -0.226823     -0.465639
H            -0.386417     -0.076158      0.266952
H             0.082994     -0.080785      0.444904
H             0.419351     -0.267550     -0.305556
O            -0.194600     -0.249819      0.386862
O            -0.300463     -0.103242     -0.334692
O             0.209979     -0.084546     -0.406661
O             0.320647     -0.258086      0.337594
O            -0.043723     -0.238014     -0.363118
O            -0.442550     -0.076575      0.403314
O             0.058246     -0.095130      0.348558
O             0.451928     -0.250984     -0.407335
Fe            0.145277      0.095046     -0.295394
Fe            0.359948      0.246780      0.482344
Fe           -0.138307      0.248044      0.276537
Fe           -0.361059      0.063773     -0.466992
H            -0.108440      0.057372     -0.460604
H            -0.404659      0.262549      0.317398
H             0.095313      0.232361      0.443465
H             0.402204      0.060853     -0.306355
O            -0.193523      0.084387      0.396819
O            -0.305499      0.242981     -0.355810
O             0.192259      0.260236     -0.421071
O             0.312300      0.085229      0.343216
O            -0.061885      0.068496     -0.365365
O            -0.441895      0.246938      0.409466
O             0.049282      0.220614      0.347731
O             0.445329      0.076336     -0.394897
Ni            0.116081      0.420857     -0.301731
Fe            0.366872     -0.414357      0.472446
Fe           -0.134717     -0.418046      0.271566
Fe           -0.353575      0.418513     -0.470512
H            -0.088961      0.405114     -0.449362
H            -0.415279     -0.402395      0.297256
H             0.110628     -0.408668      0.457469
H             0.441076      0.414631     -0.289993
O            -0.199706      0.411889      0.398447
O            -0.308489     -0.408454     -0.338761
O             0.195234     -0.421710     -0.420721
O             0.305346      0.412038      0.355642
O            -0.070227      0.429528     -0.345864
O            -0.453939     -0.422005      0.394699
O             0.067095     -0.416454      0.358850
O             0.440335      0.413611     -0.392137
H             0.224933      0.388089     -0.110223
H            -0.219167      0.020343      0.323321
H            -0.087101     -0.022530      0.155166
data_nwchem_pspw

_audit_creation_date   Wed May 10 05:29:28 2023
_audit_creation_method    generated by PSPW module of NWChem


_cell_length_a            10.0667
_cell_length_b             9.1552
_cell_length_c             9.2041
_cell_angle_alpha         90.0000
_cell_angle_beta          90.0000
_cell_angle_gamma         90.0000

_symmetry_space_group_name_H-M     P1  

loop_
_atom_site_type_symbol
_atom_site_fract_x
_atom_site_fract_y
_atom_site_fract_z
Fe            0.148739     -0.241891      0.234642
Fe            0.352390     -0.083973     -0.028640
Fe           -0.135404     -0.099531     -0.235162
Fe           -0.344421     -0.236124      0.025164
H            -0.054878     -0.273800      0.036570
H            -0.425045     -0.070953     -0.207177
H             0.075681     -0.067859     -0.046313
H             0.430409     -0.250171      0.219166
O            -0.195544     -0.253483     -0.100288
O            -0.315939     -0.065071      0.166609
O             0.189732     -0.074004      0.092460
O             0.312955     -0.251388     -0.149221
O            -0.036521     -0.273798      0.139809
O            -0.452138     -0.080681     -0.104535
O             0.057853     -0.084927     -0.147203
O             0.461804     -0.256920      0.112610
Fe            0.156250      0.091909      0.229378
Fe            0.358512      0.231466     -0.005168
Fe           -0.136807      0.245864     -0.227869
Fe           -0.365770      0.094010      0.018453
H            -0.118438      0.071197      0.008652
H            -0.406999      0.255490     -0.206915
H             0.084279      0.231343     -0.051379
H             0.408408      0.079638      0.215099
O            -0.188597      0.065051     -0.089826
O            -0.304681      0.257088      0.147058
O             0.188377      0.259125      0.099435
O             0.302213      0.081292     -0.148236
O            -0.048816      0.071939      0.129167
O            -0.450395      0.255831     -0.110063
O             0.055687      0.237304     -0.155196
O             0.443359      0.079293      0.108701
Fe            0.137740      0.433284      0.202576
Fe            0.371481     -0.418524     -0.026958
Fe           -0.155258     -0.425081     -0.222694
Fe           -0.360578      0.421429      0.031447
H            -0.092731      0.415247      0.046733
H            -0.428463     -0.454546     -0.210952
H             0.082415     -0.421086     -0.044930
H             0.405647      0.399803      0.204163
O            -0.194707      0.402504     -0.089311
O            -0.309155     -0.411757      0.163163
O             0.205850     -0.404624      0.081693
O             0.295829      0.407684     -0.142967
O            -0.058754      0.416574      0.147984
O            -0.442452     -0.426298     -0.112467
O             0.039861     -0.430808     -0.140790
O             0.437776      0.400534      0.103327
Fe            0.157836     -0.261383     -0.271275
Fe            0.359149     -0.081059      0.471465
H            -0.150171     -0.157275      0.397515
Fe           -0.364372     -0.249497     -0.461981
H            -0.076535     -0.246807     -0.440938
H            -0.372238     -0.088233      0.259456
H             0.117245     -0.064628      0.438500
H             0.410901     -0.244408     -0.282033
O            -0.185772     -0.251904      0.417474
O            -0.307769     -0.076785     -0.338947
O             0.198147     -0.092323     -0.398703
O             0.317190     -0.248388      0.340319
O            -0.043421     -0.262862     -0.341064
O            -0.441509     -0.096023      0.403447
O             0.067600     -0.077218      0.348829
O             0.444254     -0.250316     -0.380232
Fe            0.146823      0.079974     -0.273326
Fe            0.344081      0.262805      0.472707
Fe           -0.142466      0.245956      0.283607
Fe           -0.366076      0.081830     -0.469137
H            -0.096670      0.055643     -0.454307
H            -0.426979      0.255268      0.290335
H             0.063209      0.257576      0.457118
H             0.411677      0.107891     -0.301152
O            -0.198158      0.072804      0.393724
O            -0.313479      0.250046     -0.353431
O             0.200964      0.237495     -0.401035
O             0.317037      0.096257      0.328945
O            -0.061278      0.078204     -0.358156
O            -0.447353      0.241365      0.391459
O             0.045855      0.262735      0.355813
O             0.438758      0.094454     -0.400420
Ni            0.129364      0.407134     -0.281434
Fe            0.356205     -0.404086      0.479342
Fe           -0.137063     -0.400749      0.267821
Fe           -0.357935      0.418515     -0.483624
H            -0.094243      0.407697     -0.469316
H            -0.408227     -0.409085      0.294468
H             0.106168     -0.433638      0.440258
H             0.387248      0.415297     -0.305722
O            -0.197078      0.415105      0.396141
O            -0.311820     -0.422636     -0.342960
O             0.192411     -0.418497     -0.405354
O             0.294101      0.420201      0.340311
O            -0.065768      0.403412     -0.364608
O            -0.454159     -0.413827      0.393300
O             0.059093     -0.416446      0.347382
O             0.444711      0.412644     -0.387711
H             0.227820      0.444792     -0.077834
H            -0.226262      0.028053      0.299725
H            -0.081617     -0.010741      0.182154
data_nwchem_pspw

_audit_creation_date   Wed May 10 08:32:03 2023
_audit_creation_method    generated by PSPW module of NWChem


_cell_length_a            10.0667
_cell_length_b             9.1552
_cell_length_c             9.2041
_cell_angle_alpha         90.0000
_cell_angle_beta          90.0000
_cell_angle_gamma         90.0000

_symmetry_space_group_name_H-M     P1  

loop_
_atom_site_type_symbol
_atom_site_fract_x
_atom_site_fract_y
_atom_site_fract_z
Fe            0.139695     -0.248058      0.226519
Fe            0.353361     -0.088861     -0.033118
Fe           -0.137014     -0.080848     -0.242506
Fe           -0.340625     -0.242572      0.032738
H            -0.109026     -0.241346      0.056539
H            -0.400709     -0.069915     -0.199659
H             0.083461     -0.090389     -0.047542
H             0.404391     -0.242037      0.188196
O            -0.195524     -0.240757     -0.095635
O            -0.301779     -0.072747      0.166812
O             0.189255     -0.083482      0.081878
O             0.306243     -0.267310     -0.159832
O            -0.058841     -0.275831      0.142833
O            -0.437586     -0.083191     -0.093678
O             0.055068     -0.083862     -0.154548
O             0.447046     -0.248933      0.090025
Fe            0.152641      0.069801      0.237502
Fe            0.370813      0.233382     -0.001156
Fe           -0.159215      0.262989     -0.233264
Fe           -0.345370      0.089444      0.028980
H            -0.077937      0.065146      0.036563
H            -0.424474      0.250613     -0.192349
H             0.083537      0.233653     -0.045096
H             0.427515      0.071727      0.223141
O            -0.188001      0.073685     -0.092680
O            -0.305819      0.250319      0.163323
O             0.199374      0.227656      0.086635
O             0.321948      0.082307     -0.150898
O            -0.058576      0.047392      0.149990
O            -0.437355      0.258079     -0.089237
O             0.038609      0.242153     -0.140814
O             0.453117      0.067593      0.118113
Fe            0.156660      0.413706      0.213392
Fe            0.368381     -0.417537     -0.026803
Fe           -0.141338     -0.407444     -0.227385
Fe           -0.353278      0.424551      0.035771
H            -0.081922      0.409694      0.040834
H            -0.392665     -0.409458     -0.191105
H             0.084885     -0.398998     -0.042529
H             0.417310      0.424263      0.196319
O            -0.186708      0.430555     -0.091393
O            -0.315376     -0.417805      0.172104
O             0.201723     -0.421192      0.089918
O             0.290154      0.409959     -0.146892
O            -0.048212      0.394597      0.141812
O            -0.436804     -0.419476     -0.095574
O             0.056318     -0.398353     -0.144005
O             0.454637      0.420191      0.097517
Fe            0.150211     -0.250779     -0.282469
Fe            0.364648     -0.080066      0.476505
H            -0.175207     -0.155056      0.391561
Fe           -0.365392     -0.256811     -0.464563
H            -0.110372     -0.257617     -0.457434
H            -0.361952     -0.087282      0.250647
H             0.104135     -0.115897      0.455282
H             0.409176     -0.235768     -0.300821
O            -0.191483     -0.256480      0.416302
O            -0.302790     -0.085233     -0.346768
O             0.211119     -0.078026     -0.388727
O             0.311588     -0.237569      0.334040
O            -0.067361     -0.258731     -0.358673
O            -0.449062     -0.077022      0.401680
O             0.073694     -0.093665      0.358200
O             0.444541     -0.240407     -0.394803
Fe            0.145080      0.097727     -0.269568
Fe            0.340831      0.247487      0.472345
Fe           -0.143890      0.245271      0.275704
Fe           -0.368768      0.073689     -0.468440
H            -0.082132      0.082249     -0.466790
H            -0.411165      0.259153      0.304307
H             0.085762      0.248261      0.441730
H             0.414443      0.107029     -0.292270
O            -0.206185      0.078174      0.386229
O            -0.323817      0.252919     -0.342115
O             0.185553      0.254378     -0.414666
O             0.310447      0.068911      0.347153
O            -0.056279      0.083263     -0.365340
O            -0.463538      0.251564      0.393056
O             0.056336      0.246561      0.339187
O             0.441577      0.112246     -0.394894
Ni            0.125641      0.427762     -0.289724
Fe            0.347416     -0.415485      0.465097
Fe           -0.126183     -0.419673      0.282778
Fe           -0.374969      0.416771     -0.480208
H            -0.096765      0.399557     -0.454475
H            -0.409154     -0.407801      0.307721
H             0.107676     -0.414840      0.447279
H             0.427976      0.451468     -0.304294
O            -0.215170      0.408844      0.402636
O            -0.305916     -0.419199     -0.347337
O             0.183205     -0.416301     -0.416689
O             0.304952      0.420870      0.341022
O            -0.061242      0.428423     -0.354608
O            -0.460704     -0.406628      0.404047
O             0.064399     -0.425156      0.344721
O             0.428146      0.430655     -0.404749
H             0.228280      0.404018     -0.070037
H            -0.240018      0.030093      0.298872
H            -0.093307     -0.048352      0.172463
data_nwchem_pspw

_audit_creation_date   Wed May 10 11:28:33 2023
_audit_creation_method    generated by PSPW module of NWChem


_cell_length_a            10.0667
_cell_length_b             9.1552
_cell_length_c             9.2041
_cell_angle_alpha         90.0000
_cell_angle_beta          90.0000
_cell_angle_gamma         90.0000

_symmetry_space_group_name_H-M     P1  

loop_
_atom_site_type_symbol
_atom_site_fract_x
_atom_site_fract_y
_atom_site_fract_z
Fe            0.144443     -0.246003      0.227814
Fe            0.357499     -0.082419     -0.023565
Fe           -0.127919     -0.089671     -0.217203
Fe           -0.343819     -0.242620      0.030396
H            -0.096966     -0.237544      0.057813
H            -0.402146     -0.074998     -0.199658
H             0.107003     -0.088926     -0.046213
H             0.419364     -0.234482      0.201043
O            -0.186236     -0.254659     -0.087801
O            -0.315915     -0.072729      0.169767
O             0.201830     -0.078823      0.089796
O             0.305572     -0.250878     -0.156772
O            -0.060000     -0.219886      0.154462
O            -0.431868     -0.066109     -0.098372
O             0.077436     -0.089459     -0.154181
O             0.448794     -0.238990      0.105216
Fe            0.148902      0.068373      0.221020
Fe            0.345615      0.245443     -0.013301
Fe           -0.147747      0.239058     -0.225317
Fe           -0.356840      0.099919      0.029409
H            -0.076088      0.079538      0.044512
H            -0.409290      0.248972     -0.206350
H             0.080528      0.234600     -0.055155
H             0.405468      0.086514      0.196135
O            -0.193630      0.068071     -0.086394
O            -0.303590      0.251174      0.160091
O             0.182990      0.245026      0.089321
O             0.295051      0.091312     -0.153214
O            -0.052194      0.059936      0.142476
O            -0.436658      0.269557     -0.105447
O             0.053321      0.235765     -0.156594
O             0.449269      0.081525      0.101466
Fe            0.138297      0.405556      0.220467
Fe            0.362070     -0.404253     -0.008190
Fe           -0.141696     -0.425069     -0.215276
Fe           -0.352924      0.415834      0.029696
H            -0.086277      0.402974      0.051140
H            -0.421734     -0.412579     -0.192112
H             0.068336     -0.438729     -0.053904
H             0.388905      0.418210      0.203589
O            -0.170486      0.401207     -0.076101
O            -0.303725     -0.409853      0.150571
O             0.190085     -0.419995      0.100504
O             0.303840      0.416754     -0.151899
O            -0.055745      0.423691      0.155118
O            -0.449271     -0.422495     -0.090001
O             0.072382     -0.438736     -0.155970
O             0.448721      0.408379      0.110856
Fe            0.154819     -0.261500     -0.287795
Fe            0.356055     -0.069575      0.468256
H            -0.156134     -0.158695      0.375291
Fe           -0.363783     -0.254075     -0.460679
H            -0.081102     -0.263169     -0.438328
H            -0.368257     -0.083270      0.261630
H             0.112165     -0.076695      0.446941
H             0.410449     -0.253286     -0.290866
O            -0.192285     -0.244095      0.416271
O            -0.292618     -0.087591     -0.344619
O             0.185295     -0.085231     -0.415244
O             0.322264     -0.244620      0.336599
O            -0.047503     -0.264829     -0.341141
O            -0.444267     -0.088805      0.398191
O             0.065314     -0.083433      0.349471
O             0.447653     -0.245332     -0.387598
Fe            0.136266      0.081277     -0.275835
Fe            0.344502      0.264773      0.475341
Fe           -0.148489      0.265453      0.282449
Fe           -0.365064      0.069608     -0.478320
H            -0.097789      0.046176     -0.457959
H            -0.447343      0.252058      0.294124
H             0.067938      0.231227      0.445738
H             0.415197      0.065279     -0.299665
O            -0.197293      0.081158      0.394128
O            -0.298520      0.245510     -0.354672
O             0.187543      0.243658     -0.414498
O             0.314654      0.096400      0.339048
O            -0.064836      0.065590     -0.361928
O            -0.461100      0.247280      0.401347
O             0.047866      0.246100      0.345783
O             0.447417      0.073235     -0.397459
Ni            0.122953      0.405482     -0.301302
Fe            0.361607     -0.406387      0.465082
Fe           -0.138361     -0.389358      0.269530
Fe           -0.358774      0.409544     -0.481553
H            -0.108919      0.422292     -0.456166
H            -0.397734     -0.418998      0.304232
H             0.080516     -0.397986      0.445939
H             0.377413      0.416573     -0.323507
O            -0.190979      0.436434      0.392897
O            -0.310737     -0.419544     -0.331119
O             0.197191     -0.429062     -0.415244
O             0.304204      0.420130      0.331529
O            -0.066607      0.415160     -0.358048
O            -0.439065     -0.426040      0.400460
O             0.056497     -0.422232      0.347336
O             0.440086      0.408879     -0.402592
H             0.215809      0.451437     -0.124497
H            -0.229327      0.019857      0.316266
H            -0.069730     -0.046794      0.165774
data_nwchem_pspw

_audit_creation_date   Wed May 10 15:32:30 2023
_audit_creation_method    generated by PSPW module of NWChem


_cell_length_a            10.0667
_cell_length_b             9.1552
_cell_length_c             9.2041
_cell_angle_alpha         90.0000
_cell_angle_beta          90.0000
_cell_angle_gamma         90.0000

_symmetry_space_group_name_H-M     P1  

loop_
_atom_site_type_symbol
_atom_site_fract_x
_atom_site_fract_y
_atom_site_fract_z
Fe            0.141810     -0.262796      0.219795
Fe            0.338588     -0.094624     -0.021084
Fe           -0.135376     -0.079397     -0.227152
Fe           -0.349212     -0.246382      0.011742
H            -0.087645     -0.260692      0.044978
H            -0.392136     -0.095331     -0.203048
H             0.078577     -0.068758     -0.045198
H             0.424369     -0.250704      0.191785
O            -0.196350     -0.247497     -0.115684
O            -0.305161     -0.078794      0.147116
O             0.181624     -0.094160      0.100653
O             0.301684     -0.260997     -0.142477
O            -0.058675     -0.274443      0.145180
O            -0.438654     -0.076653     -0.105251
O             0.052005     -0.074488     -0.148406
O             0.464731     -0.244907      0.102575
Fe            0.144208      0.070725      0.226738
Fe            0.344752      0.236120     -0.013464
Fe           -0.138469      0.252300     -0.220441
Fe           -0.374560      0.087947      0.027089
H            -0.137480      0.098216     -0.009451
H            -0.408682      0.234605     -0.199369
H             0.091191      0.257104     -0.055226
H             0.392906      0.076962      0.209187
O            -0.201853      0.081328     -0.086113
O            -0.312318      0.249416      0.160879
O             0.180694      0.241402      0.101134
O             0.316725      0.083085     -0.151481
O            -0.056271      0.081976      0.145110
O            -0.441702      0.268669     -0.099965
O             0.055856      0.263143     -0.153323
O             0.433605      0.066121      0.107439
Fe            0.138737      0.409997      0.249507
Fe            0.361107     -0.415901     -0.001610
Fe           -0.132890     -0.422800     -0.245797
Fe           -0.358917      0.428915      0.021987
H            -0.084847      0.414330      0.061976
H            -0.423293     -0.402409     -0.210002
H             0.080846     -0.401932     -0.048959
H             0.407750      0.411316      0.208586
O            -0.191643      0.428311     -0.088358
O            -0.321686     -0.406691      0.143013
O             0.184439     -0.427786      0.100826
O             0.287472      0.413624     -0.132305
O            -0.051702      0.402430      0.158773
O            -0.445075     -0.408493     -0.108050
O             0.053969     -0.409185     -0.152775
O             0.437032      0.408734      0.108425
Fe            0.149157     -0.239912     -0.268912
Fe            0.366207     -0.087081      0.476011
H            -0.200657     -0.158372      0.347009
Fe           -0.361683     -0.242524     -0.469665
H            -0.080234     -0.237798     -0.462618
H            -0.367410     -0.084527      0.229723
H             0.109558     -0.074298      0.445697
H             0.418035     -0.275697     -0.297028
O            -0.205069     -0.245535      0.406478
O            -0.307241     -0.085683     -0.329984
O             0.206463     -0.072317     -0.388813
O             0.296292     -0.251354      0.349215
O            -0.053933     -0.252326     -0.361205
O            -0.445144     -0.085213      0.406313
O             0.052942     -0.084981      0.357624
O             0.438966     -0.244802     -0.393105
Fe            0.153379      0.100920     -0.283225
Fe            0.359102      0.238237      0.463028
Fe           -0.145938      0.239073      0.264039
Fe           -0.347067      0.081914     -0.464914
H            -0.077940      0.114496     -0.450966
H            -0.399627      0.248923      0.310829
H             0.101281      0.246286      0.450369
H             0.435225      0.107449     -0.293868
O            -0.173710      0.070065      0.413983
O            -0.295720      0.238941     -0.336642
O             0.213793      0.256527     -0.413082
O             0.319323      0.076796      0.338696
O            -0.046718      0.082107     -0.355185
O            -0.437181      0.256593      0.407829
O             0.063565      0.236381      0.354739
O             0.453606      0.092797     -0.397521
Ni            0.133074      0.428953     -0.296851
Fe            0.356755     -0.413244      0.478420
Fe           -0.152378     -0.412774      0.264968
Fe           -0.350654      0.425665     -0.482888
H            -0.096401      0.412811     -0.472896
H            -0.428581     -0.423954      0.301012
H             0.093108     -0.399634      0.460148
H             0.416470      0.408066     -0.299350
O            -0.195433      0.409930      0.391453
O            -0.291070     -0.415263     -0.353713
O             0.191183     -0.404869     -0.409621
O             0.306368      0.409301      0.346189
O            -0.056807      0.389703     -0.378733
O            -0.452989     -0.420033      0.403345
O             0.047807     -0.409988      0.359077
O             0.457361      0.434344     -0.388269
H             0.201807      0.437497     -0.094474
H            -0.106662     -0.004672      0.391263
H            -0.090698     -0.008122      0.175569
data_nwchem_pspw

_audit_creation_date   Wed May 10 20:19:30 2023
_audit_creation_method    generated by PSPW module of NWChem


_cell_length_a            10.0667
_cell_length_b             9.1552
_cell_length_c             9.2041
_cell_angle_alpha         90.0000
_cell_angle_beta          90.0000
_cell_angle_gamma         90.0000

_symmetry_space_group_name_H-M     P1  

loop_
_atom_site_type_symbol
_atom_site_fract_x
_atom_site_fract_y
_atom_site_fract_z
Fe            0.154808     -0.243596      0.229830
Fe            0.346108     -0.079508     -0.030389
Fe           -0.147647     -0.095475     -0.219062
Fe           -0.363392     -0.254003      0.043739
H            -0.072942     -0.261183      0.055675
H            -0.429477     -0.088001     -0.200283
H             0.081492     -0.093614     -0.044851
H             0.427041     -0.230662      0.213473
O            -0.209768     -0.264593     -0.094399
O            -0.310438     -0.073019      0.166736
O             0.179340     -0.073987      0.082138
O             0.305592     -0.246224     -0.152888
O            -0.052802     -0.240118      0.156087
O            -0.442459     -0.082886     -0.093445
O             0.048286     -0.086733     -0.148291
O             0.441383     -0.241999      0.106859
Fe            0.142677      0.091524      0.217887
Fe            0.368872      0.239222     -0.023505
Fe           -0.135680      0.240946     -0.234372
Fe           -0.359601      0.086054      0.036821
H            -0.117818      0.080363      0.003959
H            -0.415520      0.250477     -0.195583
H             0.099936      0.229111     -0.078194
H             0.419472      0.079201      0.202670
O            -0.182359      0.071604     -0.089939
O            -0.309559      0.252831      0.163063
O             0.206022      0.251275      0.091867
O             0.308531      0.085361     -0.160456
O            -0.060668      0.085589      0.128647
O            -0.441907      0.244030     -0.093508
O             0.056143      0.246030     -0.167371
O             0.457907      0.075109      0.101840
Fe            0.147864      0.412487      0.227364
Fe            0.360871     -0.409900     -0.013268
Fe           -0.150882     -0.418499     -0.234003
Fe           -0.346131      0.421198      0.030250
H            -0.089722      0.413682      0.044589
H            -0.423130     -0.394052     -0.200005
H             0.078752     -0.410974     -0.059848
H             0.427794      0.427897      0.213108
O            -0.194551      0.405315     -0.096376
O            -0.304050     -0.414922      0.161864
O             0.191881     -0.420670      0.096249
O             0.289836      0.418446     -0.138508
O            -0.051174      0.418122      0.145727
O            -0.445256     -0.417288     -0.097179
O             0.049949     -0.423854     -0.161214
O             0.454196      0.434462      0.107330
Fe            0.140206     -0.255644     -0.276064
Fe            0.356951     -0.080161      0.478685
H            -0.136246     -0.163065      0.373577
Fe           -0.360298     -0.241716     -0.482798
H            -0.090368     -0.251117     -0.440117
H            -0.367048     -0.069902      0.257046
H             0.087511     -0.066742      0.448736
H             0.399059     -0.252030     -0.297958
O            -0.183306     -0.245441      0.412040
O            -0.305368     -0.084337     -0.339321
O             0.200357     -0.085487     -0.408997
O             0.311989     -0.241035      0.343380
O            -0.054793     -0.259940     -0.339260
O            -0.448610     -0.064326      0.397775
O             0.065482     -0.079934      0.349875
O             0.433759     -0.251485     -0.394328
Fe            0.144951      0.076390     -0.285540
Fe            0.365714      0.247607      0.473020
Fe           -0.145624      0.240909      0.277695
Fe           -0.370673      0.080251     -0.459025
H            -0.083087      0.067145     -0.445969
H            -0.415780      0.243352      0.290910
H             0.102874      0.259148      0.454482
H             0.399357      0.079790     -0.289460
O            -0.197638      0.075143      0.406868
O            -0.304169      0.247022     -0.344053
O             0.209475      0.253502     -0.418830
O             0.308730      0.081518      0.338047
O            -0.044635      0.074611     -0.349960
O            -0.447505      0.262814      0.393934
O             0.055550      0.252184      0.360789
O             0.434850      0.097747     -0.387544
Ni            0.130319      0.413078     -0.301291
Fe            0.355805     -0.415644      0.469888
Fe           -0.133105     -0.409032      0.270638
Fe           -0.359213      0.412403     -0.471942
H            -0.098433      0.405619     -0.460965
H            -0.415913     -0.434669      0.306246
H             0.092425     -0.403299      0.449052
H             0.395385      0.403320     -0.302664
O            -0.191619      0.429871      0.403176
O            -0.316296     -0.407386     -0.348486
O             0.188358     -0.406160     -0.412197
O             0.317099      0.419264      0.338055
O            -0.054745      0.405814     -0.364423
O            -0.449212     -0.418026      0.401777
O             0.065888     -0.412221      0.343784
O             0.438618      0.416782     -0.393601
H             0.213745      0.439988     -0.076778
H            -0.226458      0.006095      0.334499
H            -0.067418     -0.021862      0.153923
data_nwchem_pspw

_audit_creation_date   Wed May 10 23:27:53 2023
_audit_creation_method    generated by PSPW module of NWChem


_cell_length_a            10.0667
_cell_length_b             9.1552
_cell_length_c             9.2041
_cell_angle_alpha         90.0000
_cell_angle_beta          90.0000
_cell_angle_gamma         90.0000

_symmetry_space_group_name_H-M     P1  

loop_
_atom_site_type_symbol
_atom_site_fract_x
_atom_site_fract_y
_atom_site_fract_z
Fe            0.138546     -0.249270      0.219499
Fe            0.359342     -0.073389     -0.021797
Fe           -0.139967     -0.089091     -0.221878
Fe           -0.355323     -0.243679      0.046536
H            -0.090789     -0.245107      0.048854
H            -0.391077     -0.078697     -0.189633
H             0.086112     -0.069259     -0.038663
H             0.402792     -0.247016      0.200206
O            -0.209210     -0.238198     -0.090117
O            -0.288016     -0.082126      0.176891
O             0.206900     -0.084352      0.096592
O             0.326970     -0.234668     -0.158934
O            -0.055019     -0.259787      0.144308
O            -0.442645     -0.069645     -0.097441
O             0.050497     -0.100898     -0.130881
O             0.449388     -0.236202      0.109328
Fe            0.150025      0.073776      0.228323
Fe            0.358910      0.245658     -0.008468
Fe           -0.148893      0.269187     -0.253486
Fe           -0.348368      0.090146      0.024139
H            -0.113842      0.115652     -0.017434
H            -0.446162      0.256629     -0.211168
H             0.048213      0.247079     -0.063863
H             0.440350      0.096969      0.216547
O            -0.179314      0.092361     -0.091407
O            -0.289643      0.247711      0.144233
O             0.206003      0.245040      0.112090
O             0.297211      0.089790     -0.153875
O            -0.030927      0.109336      0.125013
O            -0.450858      0.260853     -0.104946
O             0.040566      0.235719     -0.164694
O             0.460500      0.080688      0.111754
Fe            0.154109      0.414996      0.217835
Fe            0.372566     -0.399054     -0.019324
Fe           -0.155305     -0.406953     -0.210490
Fe           -0.355997      0.412801      0.029377
H            -0.055972      0.399970      0.028338
H            -0.391355     -0.412997     -0.195713
H             0.075936     -0.422071     -0.046955
H             0.419263      0.418799      0.213081
O            -0.193261      0.407109     -0.104525
O            -0.309836     -0.425508      0.153151
O             0.208314     -0.408925      0.091614
O             0.291984      0.416675     -0.137522
O            -0.047387      0.418682      0.132381
O            -0.434900     -0.405669     -0.096100
O             0.051070     -0.421142     -0.147929
O             0.450190      0.412236      0.115575
Fe            0.148055     -0.251321     -0.259350
Fe            0.354874     -0.082951      0.474598
H            -0.158741     -0.184037      0.362842
Fe           -0.365735     -0.239017     -0.470378
H            -0.067352     -0.267846     -0.449645
H            -0.363376     -0.077408      0.252761
H             0.079411     -0.070295      0.450141
H             0.412679     -0.275535     -0.291664
O            -0.191034     -0.267067      0.415494
O            -0.305090     -0.075793     -0.331280
O             0.196705     -0.083306     -0.394132
O             0.305162     -0.259384      0.339674
O            -0.057294     -0.248403     -0.344229
O            -0.437870     -0.084236      0.404579
O             0.056489     -0.085984      0.348352
O             0.445676     -0.267782     -0.398023
Fe            0.132737      0.071460     -0.277411
Fe            0.346000      0.246349      0.478888
Fe           -0.135054      0.235757      0.272453
Fe           -0.369409      0.067839     -0.480521
H            -0.075169      0.056355     -0.455355
H            -0.412543      0.252414      0.303688
H             0.111974      0.255950      0.455038
H             0.397105      0.092419     -0.290404
O            -0.192918      0.071348      0.390575
O            -0.306161      0.232391     -0.378525
O             0.180139      0.248029     -0.405824
O             0.306060      0.067691      0.344374
O            -0.060633      0.074196     -0.354443
O            -0.457088      0.246827      0.391077
O             0.064275      0.252590      0.357051
O             0.427821      0.086427     -0.390105
Ni            0.113797      0.417440     -0.295776
Fe            0.353480     -0.415600      0.482662
Fe           -0.133764     -0.426553      0.263328
Fe           -0.348202      0.418215     -0.486669
H            -0.090063      0.436267     -0.474808
H            -0.420453     -0.435540      0.295615
H             0.089537     -0.426362      0.452047
H             0.433586      0.426856     -0.297283
O            -0.192404      0.404401      0.386092
O            -0.309600     -0.416470     -0.347276
O             0.190678     -0.404888     -0.396345
O             0.314312      0.409474      0.340633
O            -0.073123      0.441004     -0.370409
O            -0.444470     -0.417336      0.397258
O             0.057779     -0.420996      0.350952
O             0.439411      0.412355     -0.399618
H             0.206660      0.396977     -0.098629
H            -0.200480     -0.006071      0.313300
H            -0.065860      0.011909      0.124710
data_nwchem_pspw

_audit_creation_date   Thu May 11 02:28:39 2023
_audit_creation_method    generated by PSPW module of NWChem


_cell_length_a            10.0667
_cell_length_b             9.1552
_cell_length_c             9.2041
_cell_angle_alpha         90.0000
_cell_angle_beta          90.0000
_cell_angle_gamma         90.0000

_symmetry_space_group_name_H-M     P1  

loop_
_atom_site_type_symbol
_atom_site_fract_x
_atom_site_fract_y
_atom_site_fract_z
Fe            0.151029     -0.252155      0.215736
Fe            0.357081     -0.098257     -0.020968
Fe           -0.143295     -0.082891     -0.226191
Fe           -0.347088     -0.251912      0.028679
H            -0.067657     -0.269349      0.047342
H            -0.407725     -0.047794     -0.180478
H             0.086574     -0.062834     -0.048345
H             0.421027     -0.246371      0.199960
O            -0.191046     -0.241245     -0.093524
O            -0.303208     -0.088073      0.181373
O             0.204098     -0.076726      0.097604
O             0.308871     -0.252383     -0.156254
O            -0.041937     -0.247022      0.144590
O            -0.446585     -0.067233     -0.083604
O             0.059725     -0.069037     -0.152046
O             0.451365     -0.259536      0.100642
Fe            0.139085      0.080752      0.236819
Fe            0.365159      0.231259     -0.018499
Fe           -0.139657      0.249060     -0.225578
Fe           -0.364857      0.074108      0.050630
H            -0.120404      0.055834      0.004991
H            -0.401932      0.261572     -0.209653
H             0.078124      0.235780     -0.056013
H             0.406125      0.090333      0.223930
O            -0.190016      0.079070     -0.079237
O            -0.306646      0.242226      0.162765
O             0.186482      0.256654      0.086084
O             0.313564      0.084100     -0.158077
O            -0.057114      0.067487      0.149462
O            -0.436221      0.239360     -0.104278
O             0.051189      0.239801     -0.156865
O             0.436455      0.080085      0.119094
Fe            0.150756      0.416084      0.210502
Fe            0.357194     -0.415522     -0.031963
Fe           -0.143211     -0.416139     -0.215015
Fe           -0.353555      0.411439      0.026855
H            -0.098781      0.422400      0.041000
H            -0.401779     -0.427017     -0.202004
H             0.077451     -0.435387     -0.046971
H             0.407073      0.421312      0.196487
O            -0.204673      0.421420     -0.093592
O            -0.304968     -0.420231      0.155895
O             0.206951     -0.424333      0.089347
O             0.296814      0.400672     -0.142214
O            -0.062493      0.401137      0.133430
O            -0.446296     -0.410173     -0.104459
O             0.045851     -0.419537     -0.143043
O             0.447824      0.410051      0.098736
Fe            0.128481     -0.256969     -0.274337
Fe            0.359895     -0.085426      0.479413
H            -0.142973     -0.175353      0.382936
Fe           -0.356735     -0.229255     -0.465576
H            -0.088025     -0.254146     -0.446844
H            -0.363980     -0.079917      0.271726
H             0.102065     -0.084887      0.459505
H             0.416254     -0.239546     -0.303617
O            -0.188055     -0.261381      0.417333
O            -0.310354     -0.065175     -0.342193
O             0.205002     -0.090533     -0.393429
O             0.310351     -0.249326      0.344190
O            -0.053759     -0.242691     -0.345122
O            -0.449805     -0.069897      0.415270
O             0.070950     -0.092160      0.359239
O             0.447127     -0.259343     -0.400056
Fe            0.155424      0.076129     -0.280929
Fe            0.351194      0.252207      0.476526
Fe           -0.129676      0.245078      0.274019
Fe           -0.363965      0.099624     -0.475863
H            -0.091935      0.076495     -0.445615
H            -0.413071      0.266497      0.300793
H             0.106072      0.242565      0.445990
H             0.424730      0.084242     -0.294681
O            -0.192629      0.087360      0.408564
O            -0.316879      0.275922     -0.332624
O             0.186887      0.246529     -0.418868
O             0.297480      0.089385      0.353786
O            -0.053807      0.082356     -0.349505
O            -0.451381      0.273377      0.400879
O             0.062863      0.243172      0.343193
O             0.447993      0.097274     -0.392061
Ni            0.116611      0.410795     -0.307596
Fe            0.353847     -0.418873      0.466245
Fe           -0.136438     -0.418565      0.266523
Fe           -0.367892      0.441991     -0.483592
H            -0.102818      0.421422     -0.458249
H            -0.411823     -0.397537      0.296383
H             0.111749     -0.420049      0.433359
H             0.408067      0.467284     -0.308849
O            -0.203833      0.420003      0.390763
O            -0.299771     -0.414329     -0.344922
O             0.183723     -0.405553     -0.422357
O             0.312907      0.409717      0.332087
O            -0.067000      0.424603     -0.358102
O            -0.442859     -0.386128      0.397164
O             0.060931     -0.436396      0.342042
O             0.447368      0.422741     -0.391212
H             0.213499      0.397140     -0.091152
H            -0.216969      0.003053      0.351415
H            -0.082207     -0.031758      0.175339
data_nwchem_pspw

_audit_creation_date   Thu May 11 05:29:09 2023
_audit_creation_method    generated by PSPW module of NWChem


_cell_length_a            10.0667
_cell_length_b             9.1552
_cell_length_c             9.2041
_cell_angle_alpha         90.0000
_cell_angle_beta          90.0000
_cell_angle_gamma         90.0000

_symmetry_space_group_name_H-M     P1  

loop_
_atom_site_type_symbol
_atom_site_fract_x
_atom_site_fract_y
_atom_site_fract_z
Fe            0.132512     -0.241429      0.236715
Fe            0.358068     -0.071154     -0.015867
Fe           -0.138850     -0.094236     -0.217838
Fe           -0.354584     -0.237481      0.040753
H            -0.102320     -0.231408      0.064389
H            -0.413239     -0.067428     -0.211631
H             0.091454     -0.085701     -0.034981
H             0.400641     -0.228145      0.215038
O            -0.202024     -0.261186     -0.092967
O            -0.318264     -0.083501      0.167622
O             0.188229     -0.081683      0.092020
O             0.321688     -0.243442     -0.157821
O            -0.067995     -0.246215      0.160079
O            -0.441805     -0.070112     -0.107265
O             0.068495     -0.091413     -0.143392
O             0.440149     -0.224937      0.115873
Fe            0.150564      0.067754      0.227900
Fe            0.358002      0.252760     -0.018294
Fe           -0.144928      0.245902     -0.237392
Fe           -0.346881      0.078057      0.027454
H            -0.100261      0.093145      0.042128
H            -0.417901      0.258337     -0.219083
H             0.072375      0.263295     -0.058983
H             0.417143      0.095788      0.206852
O            -0.189527      0.080404     -0.091095
O            -0.303098      0.261956      0.150638
O             0.209265      0.234748      0.104923
O             0.297204      0.078893     -0.148085
O            -0.053618      0.074334      0.138832
O            -0.451716      0.251921     -0.116125
O             0.044050      0.265744     -0.156762
O             0.450270      0.100895      0.106722
Fe            0.152770      0.412695      0.220194
Fe            0.353822     -0.386283     -0.013763
Fe           -0.149775     -0.427529     -0.222424
Fe           -0.355306      0.419120      0.022374
H            -0.082657      0.404313      0.045006
H            -0.428460     -0.397533     -0.193191
H             0.058727     -0.432279     -0.038991
H             0.396854      0.434559      0.176005
O            -0.202943      0.409714     -0.101411
O            -0.300044     -0.413055      0.155934
O             0.184031     -0.419364      0.095172
O             0.273927      0.409360     -0.137691
O            -0.048723      0.409117      0.149502
O            -0.460478     -0.394649     -0.093094
O             0.046793     -0.420926     -0.143989
O             0.433989      0.426954      0.078100
Fe            0.142969     -0.253555     -0.282681
Fe            0.361309     -0.090216      0.482364
H            -0.161441     -0.173834      0.388503
Fe           -0.357020     -0.263682     -0.481475
H            -0.096320     -0.265598     -0.440761
H            -0.421364     -0.103667      0.292301
H             0.080767     -0.086331      0.462584
H             0.416778     -0.263159     -0.298658
O            -0.179049     -0.264337      0.433268
O            -0.300824     -0.088620     -0.344419
O             0.203473     -0.081258     -0.396340
O             0.305674     -0.247086      0.351261
O            -0.047541     -0.265011     -0.349029
O            -0.443148     -0.084075      0.397128
O             0.042825     -0.081015      0.367660
O             0.455990     -0.252006     -0.396858
Fe            0.146623      0.089752     -0.273202
Fe            0.361815      0.252602      0.464146
Fe           -0.150248      0.254352      0.274715
Fe           -0.349339      0.078370     -0.463338
H            -0.083279      0.055621     -0.441592
H            -0.419299      0.246305      0.291658
H             0.088179      0.243362      0.450130
H             0.408804      0.096546     -0.307605
O            -0.206481      0.075451      0.385853
O            -0.300608      0.241939     -0.350741
O             0.198710      0.231137     -0.413641
O             0.323895      0.075478      0.335538
O            -0.050856      0.075822     -0.346517
O            -0.447341      0.245275      0.395020
O             0.058229      0.243308      0.350454
O             0.454877      0.090406     -0.398710
Ni            0.124162      0.409633     -0.296744
Fe            0.357144     -0.417356      0.479942
Fe           -0.140142     -0.413509      0.262462
Fe           -0.363543      0.421123     -0.484725
H            -0.086806      0.416084     -0.469041
H            -0.396066     -0.427541      0.287680
H             0.088423     -0.434506      0.461978
H             0.405760      0.397632     -0.319487
O            -0.195880      0.418865      0.405250
O            -0.307393     -0.426755     -0.354228
O             0.194098     -0.420205     -0.408229
O             0.330769      0.421691      0.320485
O            -0.063205      0.405672     -0.368989
O            -0.433454     -0.408907      0.384488
O             0.062113     -0.422612      0.358443
O             0.447048      0.430494     -0.407215
H             0.200718      0.443466     -0.081086
H            -0.249225      0.028680      0.305421
H            -0.088443     -0.020959      0.163573
data_nwchem_pspw

_audit_creation_date   Thu May 11 08:27:57 2023
_audit_creation_method    generated by PSPW module of NWChem


_cell_length_a            10.0667
_cell_length_b             9.1552
_cell_length_c             9.2041
_cell_angle_alpha         90.0000
_cell_angle_beta          90.0000
_cell_angle_gamma         90.0000

_symmetry_space_group_name_H-M     P1  

loop_
_atom_site_type_symbol
_atom_site_fract_x
_atom_site_fract_y
_atom_site_fract_z
Fe            0.142932     -0.264866      0.211577
Fe            0.349303     -0.077190     -0.027749
Fe           -0.141966     -0.094358     -0.224341
Fe           -0.360819     -0.227718      0.037395
H            -0.094510     -0.264931      0.039257
H            -0.400157     -0.070559     -0.183211
H             0.077822     -0.090061     -0.054204
H             0.427332     -0.252593      0.209169
O            -0.208830     -0.262123     -0.091359
O            -0.298242     -0.082812      0.178372
O             0.190070     -0.083947      0.092340
O             0.310733     -0.237830     -0.151242
O            -0.046120     -0.277317      0.133322
O            -0.439314     -0.071206     -0.086460
O             0.061708     -0.081999     -0.159723
O             0.447062     -0.255287      0.108944
Fe            0.136475      0.062171      0.232408
Fe            0.371011      0.237058     -0.015287
Fe           -0.144498      0.253077     -0.239614
Fe           -0.353032      0.084157      0.048965
H            -0.102378      0.109664      0.002441
H            -0.410720      0.231654     -0.196796
H             0.080839      0.262160     -0.048477
H             0.398422      0.072547      0.219936
O            -0.166972      0.088996     -0.077431
O            -0.306970      0.249889      0.162774
O             0.198090      0.242206      0.088986
O             0.306912      0.084001     -0.164889
O            -0.057015      0.073301      0.151936
O            -0.439324      0.233731     -0.096456
O             0.066013      0.258527     -0.154644
O             0.445916      0.065078      0.119975
Fe            0.132393      0.410654      0.207810
Fe            0.363441     -0.407372     -0.013948
Fe           -0.141163     -0.416795     -0.227817
Fe           -0.350633      0.421701      0.025216
H            -0.104219      0.411630      0.039228
H            -0.410704     -0.388004     -0.187991
H             0.073839     -0.411025     -0.049404
H             0.412439      0.390812      0.197759
O            -0.187152      0.417657     -0.098200
O            -0.314365     -0.418863      0.164170
O             0.208696     -0.429951      0.099693
O             0.295479      0.419923     -0.136737
O            -0.061640      0.424947      0.138495
O            -0.441940     -0.426243     -0.095400
O             0.058789     -0.395634     -0.152100
O             0.455021      0.412228      0.104894
Fe            0.154409     -0.249466     -0.280143
Fe            0.358078     -0.088858      0.471911
H            -0.172822     -0.167335      0.359580
Fe           -0.360882     -0.244328     -0.466536
H            -0.094950     -0.244620     -0.451345
H            -0.402394     -0.077411      0.311405
H             0.108023     -0.103084      0.456260
H             0.418241     -0.223015     -0.290448
O            -0.194214     -0.258451      0.405255
O            -0.303328     -0.076924     -0.341699
O             0.199134     -0.073422     -0.398559
O             0.308074     -0.250329      0.339336
O            -0.052229     -0.243116     -0.354911
O            -0.442842     -0.076706      0.405449
O             0.068186     -0.102851      0.362794
O             0.450346     -0.249282     -0.390182
Fe            0.136263      0.078559     -0.269288
Fe            0.349342      0.258245      0.462152
Fe           -0.122801      0.247359      0.276737
Fe           -0.371766      0.089073     -0.461873
H            -0.085002      0.083708     -0.445727
H            -0.418385      0.260067      0.291847
H             0.124284      0.247497      0.495575
H             0.403639      0.084647     -0.296110
O            -0.202101      0.090818      0.397932
O            -0.309320      0.246632     -0.343690
O             0.183754      0.236918     -0.417616
O             0.308550      0.082663      0.339087
O            -0.068532      0.083475     -0.341791
O            -0.450947      0.267488      0.391950
O             0.064922      0.244403      0.339485
O             0.439783      0.108332     -0.398341
Ni            0.131290      0.425848     -0.291959
Fe            0.352882     -0.424505      0.467715
Fe           -0.145278     -0.417306      0.275329
Fe           -0.352778      0.417218     -0.481306
H            -0.082753      0.446255     -0.479231
H            -0.416198     -0.418299      0.298144
H             0.089187     -0.420771      0.446658
H             0.426818      0.413641     -0.305686
O            -0.193272      0.423142      0.405458
O            -0.300690     -0.418809     -0.354096
O             0.185534     -0.414444     -0.411890
O             0.310638      0.421529      0.332501
O            -0.067865      0.427219     -0.370437
O            -0.442771     -0.407136      0.401930
O             0.052194     -0.414423      0.349690
O             0.440507      0.411480     -0.407590
H             0.216776      0.414980     -0.078465
H            -0.235095      0.028446      0.317876
H            -0.103790     -0.016420      0.155399
data_nwchem_pspw

_audit_creation_date   Thu May 11 11:29:24 2023
_audit_creation_method    generated by PSPW module of NWChem


_cell_length_a            10.0667
_cell_length_b             9.1552
_cell_length_c             9.2041
_cell_angle_alpha         90.0000
_cell_angle_beta          90.0000
_cell_angle_gamma         90.0000

_symmetry_space_group_name_H-M     P1  

loop_
_atom_site_type_symbol
_atom_site_fract_x
_atom_site_fract_y
_atom_site_fract_z
Fe            0.143655     -0.243985      0.228441
Fe            0.358119     -0.086885     -0.016366
Fe           -0.141079     -0.090738     -0.223890
Fe           -0.338601     -0.240939      0.033850
H            -0.064479     -0.259802      0.044363
H            -0.381208     -0.090884     -0.195707
H             0.091069     -0.062520     -0.052608
H             0.406274     -0.274207      0.208164
O            -0.201341     -0.259563     -0.107109
O            -0.288746     -0.076851      0.168891
O             0.191921     -0.074981      0.093974
O             0.307889     -0.246903     -0.157321
O            -0.047293     -0.246839      0.146048
O            -0.427761     -0.076105     -0.098466
O             0.069178     -0.075807     -0.153155
O             0.448495     -0.244912      0.110334
Fe            0.146781      0.085802      0.223939
Fe            0.369019      0.244963     -0.007994
Fe           -0.137796      0.245470     -0.233953
Fe           -0.344920      0.084054      0.027891
H            -0.105788      0.068881      0.034351
H            -0.422687      0.247768     -0.197809
H             0.100387      0.244486     -0.066716
H             0.406982      0.083493      0.220212
O            -0.189348      0.089786     -0.095680
O            -0.314777      0.261394      0.163961
O             0.195025      0.254262      0.087462
O             0.315206      0.079321     -0.152287
O            -0.063766      0.072322      0.129845
O            -0.448762      0.247409     -0.093111
O             0.055496      0.260263     -0.159939
O             0.446545      0.087342      0.118329
Fe            0.138222      0.415340      0.225114
Fe            0.364319     -0.408328     -0.020136
Fe           -0.146925     -0.423669     -0.230956
Fe           -0.347953      0.426077      0.020446
H            -0.100608      0.413498      0.040785
H            -0.416347     -0.429526     -0.203996
H             0.074749     -0.413278     -0.053088
H             0.393055      0.431461      0.201321
O            -0.191507      0.413384     -0.092906
O            -0.308562     -0.426008      0.160870
O             0.210610     -0.408808      0.114020
O             0.290902      0.417526     -0.150265
O            -0.064227      0.412457      0.138228
O            -0.439823     -0.410961     -0.102488
O             0.057929     -0.407001     -0.158939
O             0.441229      0.420647      0.108179
Fe            0.144698     -0.252057     -0.277871
Fe            0.348405     -0.093679      0.469312
H            -0.210879     -0.163668      0.362502
Fe           -0.385084     -0.254116     -0.450036
H            -0.113554     -0.236260     -0.445747
H            -0.401946     -0.091267      0.305579
H             0.050283     -0.093905      0.454799
H             0.396327     -0.245285     -0.294777
O            -0.194022     -0.249455      0.421445
O            -0.308387     -0.083381     -0.335948
O             0.202235     -0.091927     -0.397275
O             0.320026     -0.264639      0.332765
O            -0.059818     -0.250917     -0.350218
O            -0.440674     -0.080524      0.401544
O             0.060625     -0.073374      0.352844
O             0.429509     -0.251723     -0.395434
Fe            0.158882      0.087420     -0.273703
Fe            0.355718      0.255934      0.464261
Fe           -0.142819      0.244133      0.276868
Fe           -0.363425      0.079695     -0.466522
H            -0.071121      0.070044     -0.460566
H            -0.411667      0.248406      0.284092
H             0.098030      0.251991      0.461455
H             0.417384      0.079153     -0.302383
O            -0.195022      0.059925      0.398023
O            -0.309539      0.257304     -0.344337
O             0.187212      0.244381     -0.417219
O             0.303012      0.090378      0.347471
O            -0.049224      0.078165     -0.356127
O            -0.448840      0.247761      0.388209
O             0.054629      0.258780      0.362576
O             0.440163      0.065200     -0.397281
Ni            0.128870      0.411471     -0.296292
Fe            0.346498     -0.420684      0.472871
Fe           -0.139529     -0.398886      0.266580
Fe           -0.357332      0.410537     -0.483515
H            -0.086299      0.428998     -0.475665
H            -0.435958     -0.430046      0.291872
H             0.082939     -0.425223      0.463242
H             0.377115      0.414613     -0.320291
O            -0.205305      0.421978      0.389949
O            -0.317224     -0.429228     -0.342772
O             0.197615     -0.416767     -0.405672
O             0.317535      0.416848      0.330978
O            -0.068151      0.424020     -0.373519
O            -0.460760     -0.422140      0.396966
O             0.045225     -0.425960      0.357621
O             0.443258      0.425055     -0.393611
H             0.221206      0.395832     -0.082501
H            -0.224960      0.004351      0.308735
H            -0.083970     -0.016207      0.179805