data_nwchem_pspw

_audit_creation_date   Tue Sep 26 12:31:10 2023
_audit_creation_method    generated by PSPW module of NWChem


_cell_length_a            10.0667
_cell_length_b             9.1552
_cell_length_c             9.2041
_cell_angle_alpha         90.0000
_cell_angle_beta          90.0000
_cell_angle_gamma         90.0000

_symmetry_space_group_name_H-M     P1  

loop_
_atom_site_type_symbol
_atom_site_fract_x
_atom_site_fract_y
_atom_site_fract_z
Fe            0.146735     -0.250000      0.224756
Fe            0.353175     -0.083327     -0.025375
Fe           -0.146825     -0.083327     -0.224625
Fe           -0.353265     -0.250000      0.025244
H            -0.085221     -0.250000      0.049134
H            -0.414737     -0.083030     -0.201101
H             0.085263     -0.083030     -0.048899
H             0.414779     -0.250000      0.200866
O            -0.196748     -0.250000     -0.095276
O            -0.303195     -0.083277      0.154599
O             0.196805     -0.083277      0.095401
O             0.303252     -0.250000     -0.154724
O            -0.053396     -0.250000      0.148894
O            -0.446594     -0.082953     -0.101355
O             0.053406     -0.082954     -0.148645
O             0.446604     -0.250000      0.101106
Fe            0.146825      0.083327      0.224625
Fe            0.353265      0.250000     -0.025244
Fe           -0.146735      0.250000     -0.224756
Fe           -0.353175      0.083327      0.025375
H            -0.085263      0.083030      0.048899
H            -0.414779      0.250000     -0.200866
H             0.085221      0.250000     -0.049134
H             0.414737      0.083030      0.201101
O            -0.196805      0.083277     -0.095401
O            -0.303252      0.250000      0.154724
O             0.196748      0.250000      0.095276
O             0.303195      0.083277     -0.154599
O            -0.053406      0.082954      0.148645
O            -0.446604      0.250000     -0.101106
O             0.053396      0.250000     -0.148894
O             0.446594      0.082953      0.101355
Fe            0.146825      0.416673      0.224625
Fe            0.353175     -0.416673     -0.025375
Fe           -0.146825     -0.416673     -0.224625
Fe           -0.353175      0.416673      0.025375
H            -0.085263      0.416970      0.048899
H            -0.414737     -0.416970     -0.201101
H             0.085263     -0.416970     -0.048899
H             0.414737      0.416970      0.201101
O            -0.196805      0.416723     -0.095401
O            -0.303195     -0.416723      0.154599
O             0.196805     -0.416723      0.095401
O             0.303195      0.416723     -0.154599
O            -0.053406      0.417047      0.148645
O            -0.446594     -0.417047     -0.101355
O             0.053406     -0.417047     -0.148645
O             0.446594      0.417046      0.101355
Fe            0.146735     -0.250000     -0.275244
Fe            0.353175     -0.083327      0.474625
Fe           -0.146825     -0.083327      0.275375
Fe           -0.353265     -0.250000     -0.474756
H            -0.085221     -0.250000     -0.450866
H            -0.414737     -0.083030      0.298899
H             0.085263     -0.083030      0.451101
H             0.414779     -0.250000     -0.299134
O            -0.196748     -0.250000      0.404724
O            -0.303195     -0.083277     -0.345401
O             0.196805     -0.083277     -0.404599
O             0.303252     -0.250000      0.345276
O            -0.053396     -0.250000     -0.351106
O            -0.446594     -0.082953      0.398645
O             0.053406     -0.082954      0.351355
O             0.446604     -0.250000     -0.398894
Fe            0.146825      0.083327     -0.275375
H             0.353265      0.250000      0.474756
Fe           -0.146735      0.250000      0.275244
Fe           -0.353175      0.083327     -0.474625
H            -0.085263      0.083030     -0.451101
H            -0.414779      0.250000      0.299134
H             0.085221      0.250000      0.450866
H             0.414737      0.083030     -0.298899
O            -0.196805      0.083277      0.404599
O            -0.303252      0.250000     -0.345276
O             0.196748      0.250000     -0.404724
O             0.303195      0.083277      0.345401
O            -0.053406      0.082954     -0.351355
O            -0.446604      0.250000      0.398894
O             0.053396      0.250000      0.351106
O             0.446594      0.082953     -0.398645
Fe            0.146825      0.416673     -0.275375
Cu            0.353175     -0.416673      0.474625
Fe           -0.146825     -0.416673      0.275375
Fe           -0.353175      0.416673     -0.474625
H            -0.085263      0.416970     -0.451101
H            -0.414737     -0.416970      0.298899
H             0.085263     -0.416970      0.451101
H             0.414737      0.416970     -0.298899
O            -0.196805      0.416723      0.404599
O            -0.303195     -0.416723     -0.345401
O             0.196805     -0.416723     -0.404599
O             0.303195      0.416723      0.345401
O            -0.053406      0.417047     -0.351355
O            -0.446594     -0.417047      0.398645
O             0.053406     -0.417047      0.351355
O             0.446594      0.417046     -0.398645
H             0.451134     -0.207847      0.346694
H             0.253265      0.250000      0.404756
H             0.353265      0.350000      0.474756
data_nwchem_pspw

_audit_creation_date   Tue Sep 26 12:36:37 2023
_audit_creation_method    generated by PSPW module of NWChem


_cell_length_a            10.0667
_cell_length_b             9.1552
_cell_length_c             9.2041
_cell_angle_alpha         90.0000
_cell_angle_beta          90.0000
_cell_angle_gamma         90.0000

_symmetry_space_group_name_H-M     P1  

loop_
_atom_site_type_symbol
_atom_site_fract_x
_atom_site_fract_y
_atom_site_fract_z
Fe            0.146735     -0.250000      0.224756
Fe            0.353175     -0.083327     -0.025375
Fe           -0.146825     -0.083327     -0.224625
Fe           -0.353265     -0.250000      0.025244
H            -0.085221     -0.250000      0.049134
H            -0.414737     -0.083030     -0.201101
H             0.085263     -0.083030     -0.048899
H             0.414779     -0.250000      0.200866
O            -0.196748     -0.250000     -0.095276
O            -0.303195     -0.083277      0.154599
O             0.196805     -0.083277      0.095401
O             0.303252     -0.250000     -0.154724
O            -0.053396     -0.250000      0.148894
O            -0.446594     -0.082953     -0.101355
O             0.053406     -0.082954     -0.148645
O             0.446604     -0.250000      0.101106
Fe            0.146825      0.083327      0.224625
Fe            0.353265      0.250000     -0.025244
Fe           -0.146735      0.250000     -0.224756
Fe           -0.353175      0.083327      0.025375
H            -0.085263      0.083030      0.048899
H            -0.414779      0.250000     -0.200866
H             0.085221      0.250000     -0.049134
H             0.414737      0.083030      0.201101
O            -0.196805      0.083277     -0.095401
O            -0.303252      0.250000      0.154724
O             0.196748      0.250000      0.095276
O             0.303195      0.083277     -0.154599
O            -0.053406      0.082954      0.148645
O            -0.446604      0.250000     -0.101106
O             0.053396      0.250000     -0.148894
O             0.446594      0.082953      0.101355
Fe            0.146825      0.416673      0.224625
Fe            0.353175     -0.416673     -0.025375
Fe           -0.146825     -0.416673     -0.224625
Fe           -0.353175      0.416673      0.025375
H            -0.085263      0.416970      0.048899
H            -0.414737     -0.416970     -0.201101
H             0.085263     -0.416970     -0.048899
H             0.414737      0.416970      0.201101
O            -0.196805      0.416723     -0.095401
O            -0.303195     -0.416723      0.154599
O             0.196805     -0.416723      0.095401
O             0.303195      0.416723     -0.154599
O            -0.053406      0.417047      0.148645
O            -0.446594     -0.417047     -0.101355
O             0.053406     -0.417047     -0.148645
O             0.446594      0.417046      0.101355
Fe            0.146735     -0.250000     -0.275244
Fe            0.353175     -0.083327      0.474625
Fe           -0.146825     -0.083327      0.275375
Fe           -0.353265     -0.250000     -0.474756
H            -0.085221     -0.250000     -0.450866
H            -0.414737     -0.083030      0.298899
H             0.085263     -0.083030      0.451101
H             0.414779     -0.250000     -0.299134
O            -0.196748     -0.250000      0.404724
O            -0.303195     -0.083277     -0.345401
O             0.196805     -0.083277     -0.404599
O             0.303252     -0.250000      0.345276
O            -0.053396     -0.250000     -0.351106
O            -0.446594     -0.082953      0.398645
O             0.053406     -0.082954      0.351355
O             0.446604     -0.250000     -0.398894
Fe            0.146825      0.083327     -0.275375
H             0.353265      0.250000      0.474756
Fe           -0.146735      0.250000      0.275244
Fe           -0.353175      0.083327     -0.474625
H            -0.085263      0.083030     -0.451101
H            -0.414779      0.250000      0.299134
H             0.085221      0.250000      0.450866
H             0.414737      0.083030     -0.298899
O            -0.196805      0.083277      0.404599
O            -0.303252      0.250000     -0.345276
O             0.196748      0.250000     -0.404724
O             0.303195      0.083277      0.345401
O            -0.053406      0.082954     -0.351355
O            -0.446604      0.250000      0.398894
O             0.053396      0.250000      0.351106
O             0.446594      0.082953     -0.398645
Fe            0.146825      0.416673     -0.275375
Cu            0.353175     -0.416673      0.474625
Fe           -0.146825     -0.416673      0.275375
Fe           -0.353175      0.416673     -0.474625
H            -0.085263      0.416970     -0.451101
H            -0.414737     -0.416970      0.298899
H             0.085263     -0.416970      0.451101
H             0.414737      0.416970     -0.298899
O            -0.196805      0.416723      0.404599
O            -0.303195     -0.416723     -0.345401
O             0.196805     -0.416723     -0.404599
O             0.303195      0.416723      0.345401
O            -0.053406      0.417047     -0.351355
O            -0.446594     -0.417047      0.398645
O             0.053406     -0.417047      0.351355
O             0.446594      0.417046     -0.398645
H             0.451134     -0.207847      0.346694
H             0.253265      0.250000      0.404756
H             0.353265      0.350000      0.474756
data_nwchem_pspw

_audit_creation_date   Tue Sep 26 12:39:03 2023
_audit_creation_method    generated by PSPW module of NWChem


_cell_length_a            10.0667
_cell_length_b             9.1552
_cell_length_c             9.2041
_cell_angle_alpha         90.0000
_cell_angle_beta          90.0000
_cell_angle_gamma         90.0000

_symmetry_space_group_name_H-M     P1  

loop_
_atom_site_type_symbol
_atom_site_fract_x
_atom_site_fract_y
_atom_site_fract_z
Fe            0.146735     -0.250000      0.224756
Fe            0.353175     -0.083327     -0.025375
Fe           -0.146825     -0.083327     -0.224625
Fe           -0.353265     -0.250000      0.025244
H            -0.085221     -0.250000      0.049134
H            -0.414737     -0.083030     -0.201101
H             0.085263     -0.083030     -0.048899
H             0.414779     -0.250000      0.200866
O            -0.196748     -0.250000     -0.095276
O            -0.303195     -0.083277      0.154599
O             0.196805     -0.083277      0.095401
O             0.303252     -0.250000     -0.154724
O            -0.053396     -0.250000      0.148894
O            -0.446594     -0.082953     -0.101355
O             0.053406     -0.082954     -0.148645
O             0.446604     -0.250000      0.101106
Fe            0.146825      0.083327      0.224625
Fe            0.353265      0.250000     -0.025244
Fe           -0.146735      0.250000     -0.224756
Fe           -0.353175      0.083327      0.025375
H            -0.085263      0.083030      0.048899
H            -0.414779      0.250000     -0.200866
H             0.085221      0.250000     -0.049134
H             0.414737      0.083030      0.201101
O            -0.196805      0.083277     -0.095401
O            -0.303252      0.250000      0.154724
O             0.196748      0.250000      0.095276
O             0.303195      0.083277     -0.154599
O            -0.053406      0.082954      0.148645
O            -0.446604      0.250000     -0.101106
O             0.053396      0.250000     -0.148894
O             0.446594      0.082953      0.101355
Fe            0.146825      0.416673      0.224625
Fe            0.353175     -0.416673     -0.025375
Fe           -0.146825     -0.416673     -0.224625
Fe           -0.353175      0.416673      0.025375
H            -0.085263      0.416970      0.048899
H            -0.414737     -0.416970     -0.201101
H             0.085263     -0.416970     -0.048899
H             0.414737      0.416970      0.201101
O            -0.196805      0.416723     -0.095401
O            -0.303195     -0.416723      0.154599
O             0.196805     -0.416723      0.095401
O             0.303195      0.416723     -0.154599
O            -0.053406      0.417047      0.148645
O            -0.446594     -0.417047     -0.101355
O             0.053406     -0.417047     -0.148645
O             0.446594      0.417046      0.101355
Fe            0.146735     -0.250000     -0.275244
Fe            0.353175     -0.083327      0.474625
Fe           -0.146825     -0.083327      0.275375
Fe           -0.353265     -0.250000     -0.474756
H            -0.085221     -0.250000     -0.450866
H            -0.414737     -0.083030      0.298899
H             0.085263     -0.083030      0.451101
H             0.414779     -0.250000     -0.299134
O            -0.196748     -0.250000      0.404724
O            -0.303195     -0.083277     -0.345401
O             0.196805     -0.083277     -0.404599
O             0.303252     -0.250000      0.345276
O            -0.053396     -0.250000     -0.351106
O            -0.446594     -0.082953      0.398645
O             0.053406     -0.082954      0.351355
O             0.446604     -0.250000     -0.398894
Fe            0.146825      0.083327     -0.275375
H             0.353265      0.250000      0.474756
Fe           -0.146735      0.250000      0.275244
Fe           -0.353175      0.083327     -0.474625
H            -0.085263      0.083030     -0.451101
H            -0.414779      0.250000      0.299134
H             0.085221      0.250000      0.450866
H             0.414737      0.083030     -0.298899
O            -0.196805      0.083277      0.404599
O            -0.303252      0.250000     -0.345276
O             0.196748      0.250000     -0.404724
O             0.303195      0.083277      0.345401
O            -0.053406      0.082954     -0.351355
O            -0.446604      0.250000      0.398894
O             0.053396      0.250000      0.351106
O             0.446594      0.082953     -0.398645
Fe            0.146825      0.416673     -0.275375
Cu            0.353175     -0.416673      0.474625
Fe           -0.146825     -0.416673      0.275375
Fe           -0.353175      0.416673     -0.474625
H            -0.085263      0.416970     -0.451101
H            -0.414737     -0.416970      0.298899
H             0.085263     -0.416970      0.451101
H             0.414737      0.416970     -0.298899
O            -0.196805      0.416723      0.404599
O            -0.303195     -0.416723     -0.345401
O             0.196805     -0.416723     -0.404599
O             0.303195      0.416723      0.345401
O            -0.053406      0.417047     -0.351355
O            -0.446594     -0.417047      0.398645
O             0.053406     -0.417047      0.351355
O             0.446594      0.417046     -0.398645
H             0.451134     -0.207847      0.346694
H             0.253265      0.250000      0.404756
H             0.353265      0.350000      0.474756
data_nwchem_pspw

_audit_creation_date   Tue Sep 26 12:41:10 2023
_audit_creation_method    generated by PSPW module of NWChem


_cell_length_a            10.0667
_cell_length_b             9.1552
_cell_length_c             9.2041
_cell_angle_alpha         90.0000
_cell_angle_beta          90.0000
_cell_angle_gamma         90.0000

_symmetry_space_group_name_H-M     P1  

loop_
_atom_site_type_symbol
_atom_site_fract_x
_atom_site_fract_y
_atom_site_fract_z
Fe            0.146735     -0.250000      0.224756
Fe            0.353175     -0.083327     -0.025375
Fe           -0.146825     -0.083327     -0.224625
Fe           -0.353265     -0.250000      0.025244
H            -0.085221     -0.250000      0.049134
H            -0.414737     -0.083030     -0.201101
H             0.085263     -0.083030     -0.048899
H             0.414779     -0.250000      0.200866
O            -0.196748     -0.250000     -0.095276
O            -0.303195     -0.083277      0.154599
O             0.196805     -0.083277      0.095401
O             0.303252     -0.250000     -0.154724
O            -0.053396     -0.250000      0.148894
O            -0.446594     -0.082953     -0.101355
O             0.053406     -0.082954     -0.148645
O             0.446604     -0.250000      0.101106
Fe            0.146825      0.083327      0.224625
Fe            0.353265      0.250000     -0.025244
Fe           -0.146735      0.250000     -0.224756
Fe           -0.353175      0.083327      0.025375
H            -0.085263      0.083030      0.048899
H            -0.414779      0.250000     -0.200866
H             0.085221      0.250000     -0.049134
H             0.414737      0.083030      0.201101
O            -0.196805      0.083277     -0.095401
O            -0.303252      0.250000      0.154724
O             0.196748      0.250000      0.095276
O             0.303195      0.083277     -0.154599
O            -0.053406      0.082954      0.148645
O            -0.446604      0.250000     -0.101106
O             0.053396      0.250000     -0.148894
O             0.446594      0.082953      0.101355
Fe            0.146825      0.416673      0.224625
Fe            0.353175     -0.416673     -0.025375
Fe           -0.146825     -0.416673     -0.224625
Fe           -0.353175      0.416673      0.025375
H            -0.085263      0.416970      0.048899
H            -0.414737     -0.416970     -0.201101
H             0.085263     -0.416970     -0.048899
H             0.414737      0.416970      0.201101
O            -0.196805      0.416723     -0.095401
O            -0.303195     -0.416723      0.154599
O             0.196805     -0.416723      0.095401
O             0.303195      0.416723     -0.154599
O            -0.053406      0.417047      0.148645
O            -0.446594     -0.417047     -0.101355
O             0.053406     -0.417047     -0.148645
O             0.446594      0.417046      0.101355
Fe            0.146735     -0.250000     -0.275244
Fe            0.353175     -0.083327      0.474625
Fe           -0.146825     -0.083327      0.275375
Fe           -0.353265     -0.250000     -0.474756
H            -0.085221     -0.250000     -0.450866
H            -0.414737     -0.083030      0.298899
H             0.085263     -0.083030      0.451101
H             0.414779     -0.250000     -0.299134
O            -0.196748     -0.250000      0.404724
O            -0.303195     -0.083277     -0.345401
O             0.196805     -0.083277     -0.404599
O             0.303252     -0.250000      0.345276
O            -0.053396     -0.250000     -0.351106
O            -0.446594     -0.082953      0.398645
O             0.053406     -0.082954      0.351355
O             0.446604     -0.250000     -0.398894
Fe            0.146825      0.083327     -0.275375
H             0.353265      0.250000      0.474756
Fe           -0.146735      0.250000      0.275244
Fe           -0.353175      0.083327     -0.474625
H            -0.085263      0.083030     -0.451101
H            -0.414779      0.250000      0.299134
H             0.085221      0.250000      0.450866
H             0.414737      0.083030     -0.298899
O            -0.196805      0.083277      0.404599
O            -0.303252      0.250000     -0.345276
O             0.196748      0.250000     -0.404724
O             0.303195      0.083277      0.345401
O            -0.053406      0.082954     -0.351355
O            -0.446604      0.250000      0.398894
O             0.053396      0.250000      0.351106
O             0.446594      0.082953     -0.398645
Fe            0.146825      0.416673     -0.275375
Cu            0.353175     -0.416673      0.474625
Fe           -0.146825     -0.416673      0.275375
Fe           -0.353175      0.416673     -0.474625
H            -0.085263      0.416970     -0.451101
H            -0.414737     -0.416970      0.298899
H             0.085263     -0.416970      0.451101
H             0.414737      0.416970     -0.298899
O            -0.196805      0.416723      0.404599
O            -0.303195     -0.416723     -0.345401
O             0.196805     -0.416723     -0.404599
O             0.303195      0.416723      0.345401
O            -0.053406      0.417047     -0.351355
O            -0.446594     -0.417047      0.398645
O             0.053406     -0.417047      0.351355
O             0.446594      0.417046     -0.398645
H             0.451134     -0.207847      0.346694
H             0.253265      0.250000      0.404756
H             0.353265      0.350000      0.474756
data_nwchem_pspw

_audit_creation_date   Tue Sep 26 13:08:15 2023
_audit_creation_method    generated by PSPW module of NWChem


_cell_length_a            10.0667
_cell_length_b             9.1552
_cell_length_c             9.2041
_cell_angle_alpha         90.0000
_cell_angle_beta          90.0000
_cell_angle_gamma         90.0000

_symmetry_space_group_name_H-M     P1  

loop_
_atom_site_type_symbol
_atom_site_fract_x
_atom_site_fract_y
_atom_site_fract_z
Fe            0.146735     -0.250000      0.224756
Fe            0.353175     -0.083327     -0.025375
Fe           -0.146825     -0.083327     -0.224625
Fe           -0.353265     -0.250000      0.025244
H            -0.085221     -0.250000      0.049134
H            -0.414737     -0.083030     -0.201101
H             0.085263     -0.083030     -0.048899
H             0.414779     -0.250000      0.200866
O            -0.196748     -0.250000     -0.095276
O            -0.303195     -0.083277      0.154599
O             0.196805     -0.083277      0.095401
O             0.303252     -0.250000     -0.154724
O            -0.053396     -0.250000      0.148894
O            -0.446594     -0.082953     -0.101355
O             0.053406     -0.082954     -0.148645
O             0.446604     -0.250000      0.101106
Fe            0.146825      0.083327      0.224625
Fe            0.353265      0.250000     -0.025244
Fe           -0.146735      0.250000     -0.224756
Fe           -0.353175      0.083327      0.025375
H            -0.085263      0.083030      0.048899
H            -0.414779      0.250000     -0.200866
H             0.085221      0.250000     -0.049134
H             0.414737      0.083030      0.201101
O            -0.196805      0.083277     -0.095401
O            -0.303252      0.250000      0.154724
O             0.196748      0.250000      0.095276
O             0.303195      0.083277     -0.154599
O            -0.053406      0.082954      0.148645
O            -0.446604      0.250000     -0.101106
O             0.053396      0.250000     -0.148894
O             0.446594      0.082953      0.101355
Fe            0.146825      0.416673      0.224625
Fe            0.353175     -0.416673     -0.025375
Fe           -0.146825     -0.416673     -0.224625
Fe           -0.353175      0.416673      0.025375
H            -0.085263      0.416970      0.048899
H            -0.414737     -0.416970     -0.201101
H             0.085263     -0.416970     -0.048899
H             0.414737      0.416970      0.201101
O            -0.196805      0.416723     -0.095401
O            -0.303195     -0.416723      0.154599
O             0.196805     -0.416723      0.095401
O             0.303195      0.416723     -0.154599
O            -0.053406      0.417047      0.148645
O            -0.446594     -0.417047     -0.101355
O             0.053406     -0.417047     -0.148645
O             0.446594      0.417046      0.101355
Fe            0.146735     -0.250000     -0.275244
Fe            0.353175     -0.083327      0.474625
Fe           -0.146825     -0.083327      0.275375
Fe           -0.353265     -0.250000     -0.474756
H            -0.085221     -0.250000     -0.450866
H            -0.414737     -0.083030      0.298899
H             0.085263     -0.083030      0.451101
H             0.414779     -0.250000     -0.299134
O            -0.196748     -0.250000      0.404724
O            -0.303195     -0.083277     -0.345401
O             0.196805     -0.083277     -0.404599
O             0.303252     -0.250000      0.345276
O            -0.053396     -0.250000     -0.351106
O            -0.446594     -0.082953      0.398645
O             0.053406     -0.082954      0.351355
O             0.446604     -0.250000     -0.398894
Fe            0.146825      0.083327     -0.275375
H             0.353265      0.250000      0.474756
Fe           -0.146735      0.250000      0.275244
Fe           -0.353175      0.083327     -0.474625
H            -0.085263      0.083030     -0.451101
H            -0.414779      0.250000      0.299134
H             0.085221      0.250000      0.450866
H             0.414737      0.083030     -0.298899
O            -0.196805      0.083277      0.404599
O            -0.303252      0.250000     -0.345276
O             0.196748      0.250000     -0.404724
O             0.303195      0.083277      0.345401
O            -0.053406      0.082954     -0.351355
O            -0.446604      0.250000      0.398894
O             0.053396      0.250000      0.351106
O             0.446594      0.082953     -0.398645
Fe            0.146825      0.416673     -0.275375
Cu            0.353175     -0.416673      0.474625
Fe           -0.146825     -0.416673      0.275375
Fe           -0.353175      0.416673     -0.474625
H            -0.085263      0.416970     -0.451101
H            -0.414737     -0.416970      0.298899
H             0.085263     -0.416970      0.451101
H             0.414737      0.416970     -0.298899
O            -0.196805      0.416723      0.404599
O            -0.303195     -0.416723     -0.345401
O             0.196805     -0.416723     -0.404599
O             0.303195      0.416723      0.345401
O            -0.053406      0.417047     -0.351355
O            -0.446594     -0.417047      0.398645
O             0.053406     -0.417047      0.351355
O             0.446594      0.417046     -0.398645
H             0.451134     -0.207847      0.346694
H             0.253265      0.250000      0.404756
H             0.353265      0.350000      0.474756
data_nwchem_pspw

_audit_creation_date   Tue Sep 26 14:57:13 2023
_audit_creation_method    generated by PSPW module of NWChem


_cell_length_a            10.0667
_cell_length_b             9.1552
_cell_length_c             9.2041
_cell_angle_alpha         90.0000
_cell_angle_beta          90.0000
_cell_angle_gamma         90.0000

_symmetry_space_group_name_H-M     P1  

loop_
_atom_site_type_symbol
_atom_site_fract_x
_atom_site_fract_y
_atom_site_fract_z
Fe            0.137153     -0.251586      0.230751
Fe            0.353310     -0.092941     -0.035048
Fe           -0.151275     -0.083880     -0.211468
Fe           -0.365658     -0.255087      0.032739
H            -0.089071     -0.215156      0.061640
H            -0.404111     -0.100013     -0.207308
H             0.099715     -0.068831     -0.056951
H             0.398707     -0.265160      0.190368
O            -0.205354     -0.251070     -0.090313
O            -0.305098     -0.078566      0.156807
O             0.202491     -0.073470      0.094613
O             0.297300     -0.255791     -0.154043
O            -0.069653     -0.232660      0.163486
O            -0.437439     -0.097017     -0.107192
O             0.057853     -0.080813     -0.153027
O             0.447810     -0.268990      0.095730
Fe            0.155085      0.090869      0.230944
Fe            0.356888      0.237566     -0.041168
Fe           -0.144922      0.250903     -0.217758
Fe           -0.352477      0.082838      0.014426
H            -0.057645      0.078127      0.064462
H            -0.401598      0.220211     -0.208907
H             0.112790      0.251036     -0.050615
H             0.422966      0.090149      0.189091
O            -0.185309      0.085919     -0.081243
O            -0.296070      0.242419      0.144940
O             0.210223      0.236816      0.099180
O             0.316089      0.074738     -0.169580
O            -0.035555      0.082781      0.167183
O            -0.438190      0.243502     -0.112560
O             0.055712      0.240676     -0.133623
O             0.466032      0.078646      0.097173
Fe            0.139340      0.405475      0.222226
Fe            0.344415     -0.426673     -0.013399
Fe           -0.142051     -0.419104     -0.230274
Fe           -0.362725      0.411127      0.022485
H            -0.094861      0.431577      0.038016
H            -0.417644     -0.414197     -0.198610
H             0.081841     -0.423754     -0.044088
H             0.418542      0.347189      0.184220
O            -0.213504      0.420228     -0.109935
O            -0.303802     -0.422328      0.147109
O             0.190248     -0.425656      0.101761
O             0.295330      0.413278     -0.152359
O            -0.061278      0.430471      0.136520
O            -0.451343     -0.429719     -0.100052
O             0.050615     -0.424667     -0.144669
O             0.444746      0.399980      0.099987
Fe            0.141215     -0.250717     -0.276571
Fe            0.356864     -0.090956      0.470948
Fe           -0.131364     -0.074091      0.296635
Fe           -0.341067     -0.233467     -0.473384
H            -0.077408     -0.235656     -0.439877
H            -0.366886     -0.061040      0.231171
H             0.101010     -0.079804      0.465640
H             0.418918     -0.255022     -0.279324
O            -0.184618     -0.233978      0.412821
O            -0.305065     -0.060831     -0.352475
O             0.199445     -0.083445     -0.403944
O             0.301599     -0.243725      0.330188
O            -0.059330     -0.250821     -0.338013
O            -0.452800     -0.120689      0.369416
O             0.074386     -0.074402      0.360226
O             0.453510     -0.239655     -0.376583
Fe            0.136555      0.091833     -0.289219
H             0.402272      0.172992     -0.412308
Fe           -0.142251      0.262358      0.273711
Fe           -0.358966      0.113410     -0.474764
H            -0.099614      0.080117     -0.456355
H            -0.407247      0.243986      0.302983
H             0.100972      0.255418      0.457437
H             0.379099      0.076246     -0.255111
O            -0.202659      0.093928      0.409542
O            -0.315816      0.264299     -0.335797
O             0.200185      0.242521     -0.409493
O             0.320663      0.073932      0.330465
O            -0.072189      0.080496     -0.354609
O            -0.449237      0.257976      0.399781
O             0.065284      0.254689      0.357004
O             0.450429      0.089765     -0.383552
Fe            0.143808      0.407074     -0.293306
Cu            0.369832     -0.414788      0.487435
Fe           -0.156696     -0.413035      0.268835
Fe           -0.362065      0.419641     -0.471157
H            -0.097870      0.418391     -0.446491
H            -0.416419     -0.439256      0.305354
H             0.086501     -0.413030      0.442477
H             0.432307      0.435479     -0.303957
O            -0.205456      0.424263      0.412296
O            -0.300661     -0.415048     -0.364843
O             0.187781     -0.399384     -0.406807
O             0.296470      0.412834      0.357365
O            -0.047203      0.407927     -0.357524
O            -0.436841     -0.418247      0.405421
O             0.046200     -0.419371      0.344815
O             0.449451      0.413518     -0.405011
H            -0.472358     -0.216110      0.330120
H             0.329605      0.167052      0.377722
H             0.272481      0.363400      0.448089
data_nwchem_pspw

_audit_creation_date   Tue Sep 26 17:00:16 2023
_audit_creation_method    generated by PSPW module of NWChem


_cell_length_a            10.0667
_cell_length_b             9.1552
_cell_length_c             9.2041
_cell_angle_alpha         90.0000
_cell_angle_beta          90.0000
_cell_angle_gamma         90.0000

_symmetry_space_group_name_H-M     P1  

loop_
_atom_site_type_symbol
_atom_site_fract_x
_atom_site_fract_y
_atom_site_fract_z
Fe            0.142100     -0.249719      0.227554
Fe            0.352523     -0.077442     -0.021095
Fe           -0.144618     -0.087280     -0.223906
Fe           -0.361497     -0.261123      0.015589
H            -0.093175     -0.256074      0.039292
H            -0.446876     -0.085458     -0.203622
H             0.090950     -0.071368     -0.037836
H             0.383962     -0.223772      0.206021
O            -0.196215     -0.253848     -0.106716
O            -0.302194     -0.091136      0.166708
O             0.211566     -0.059595      0.120860
O             0.292437     -0.256385     -0.131306
O            -0.056151     -0.249459      0.138809
O            -0.459366     -0.097753     -0.101001
O             0.054190     -0.066095     -0.133930
O             0.439629     -0.236189      0.117780
Fe            0.152630      0.089569      0.237152
Fe            0.351656      0.270702     -0.010186
Fe           -0.143951      0.239091     -0.215645
Fe           -0.357650      0.091024      0.022500
H            -0.043445      0.094871      0.042981
H            -0.425426      0.265095     -0.206694
H             0.093112      0.254090     -0.051889
H             0.442138      0.135053      0.203253
O            -0.210435      0.074013     -0.094916
O            -0.305197      0.257235      0.151642
O             0.185070      0.248043      0.095212
O             0.307628      0.092350     -0.150316
O            -0.031749      0.095375      0.146665
O            -0.455042      0.257868     -0.106810
O             0.056731      0.240066     -0.148994
O             0.449889      0.111019      0.101571
Fe            0.132918      0.414894      0.223728
Fe            0.336706     -0.408056     -0.004875
Fe           -0.147693     -0.439948     -0.239724
Fe           -0.350923      0.416215      0.018817
H            -0.080982      0.411080      0.040312
H            -0.458114     -0.396894     -0.203354
H             0.075888     -0.415433     -0.046327
H             0.434807      0.421572      0.222582
O            -0.188090      0.419073     -0.083720
O            -0.315026     -0.409375      0.157431
O             0.171953     -0.404143      0.096643
O             0.309041      0.428339     -0.152817
O            -0.061983      0.407553      0.143950
O            -0.459553     -0.412434     -0.100970
O             0.046811     -0.411362     -0.149299
O             0.442377      0.429982      0.119887
Fe            0.131772     -0.233549     -0.255471
Fe            0.349662     -0.085052      0.481558
Fe           -0.126707     -0.095249      0.273624
Fe           -0.345454     -0.252930     -0.460491
H            -0.077376     -0.254183     -0.459728
H            -0.360293     -0.074989      0.251527
H             0.108014     -0.077454      0.456720
H             0.414998     -0.276924     -0.295926
O            -0.185462     -0.262946      0.400374
O            -0.302352     -0.078148     -0.346574
O             0.206613     -0.074870     -0.378358
O             0.295250     -0.237580      0.351882
O            -0.056496     -0.239780     -0.356328
O            -0.458927     -0.106033      0.388467
O             0.070496     -0.073551      0.359179
O             0.449009     -0.261793     -0.391239
Fe            0.148089      0.104641     -0.312863
H             0.438176      0.173531     -0.411921
Fe           -0.151387      0.234663      0.264212
Fe           -0.343033      0.080303     -0.481446
H            -0.085862      0.072761     -0.456045
H            -0.389706      0.249001      0.273270
H             0.085538      0.239273      0.450733
H             0.377962      0.090794     -0.224303
O            -0.195470      0.068849      0.384337
O            -0.297670      0.250824     -0.353438
O             0.206959      0.265304     -0.417121
O             0.307229      0.086785      0.354897
O            -0.060714      0.074605     -0.354259
O            -0.431768      0.242061      0.371565
O             0.059848      0.246126      0.350271
O             0.478666      0.079100     -0.382621
Fe            0.155740      0.418390     -0.289949
Cu            0.360728     -0.410882      0.479100
Fe           -0.144365     -0.429201      0.263494
Fe           -0.363149      0.402242     -0.491337
H            -0.099016      0.403788     -0.451044
H            -0.394552     -0.422594      0.305205
H             0.104231     -0.414072      0.450939
H             0.435612      0.402035     -0.309866
O            -0.203273      0.406655      0.405364
O            -0.298468     -0.440916     -0.365829
O             0.186377     -0.402858     -0.396958
O             0.296134      0.423041      0.364862
O            -0.051876      0.413628     -0.359098
O            -0.436078     -0.434331      0.401847
O             0.049811     -0.401916      0.362289
O             0.459617      0.410378     -0.411047
H            -0.475325     -0.189667      0.328769
H             0.316503      0.186723      0.385452
H             0.256050      0.377917      0.452922
data_nwchem_pspw

_audit_creation_date   Tue Sep 26 19:03:33 2023
_audit_creation_method    generated by PSPW module of NWChem


_cell_length_a            10.0667
_cell_length_b             9.1552
_cell_length_c             9.2041
_cell_angle_alpha         90.0000
_cell_angle_beta          90.0000
_cell_angle_gamma         90.0000

_symmetry_space_group_name_H-M     P1  

loop_
_atom_site_type_symbol
_atom_site_fract_x
_atom_site_fract_y
_atom_site_fract_z
Fe            0.151938     -0.253352      0.219094
Fe            0.362711     -0.085300     -0.042660
Fe           -0.147939     -0.091779     -0.221067
Fe           -0.344084     -0.245649      0.006517
H            -0.057558     -0.236247      0.043985
H            -0.414036     -0.058351     -0.205660
H             0.075070     -0.090979     -0.042991
H             0.411940     -0.246488      0.189968
O            -0.193762     -0.264750     -0.110674
O            -0.296563     -0.073591      0.156317
O             0.195051     -0.079497      0.093376
O             0.300654     -0.251567     -0.144806
O            -0.055194     -0.236715      0.148036
O            -0.433937     -0.075828     -0.102502
O             0.054266     -0.098921     -0.145760
O             0.464186     -0.230789      0.100962
Fe            0.132760      0.070809      0.225833
Fe            0.358769      0.250868      0.003510
Fe           -0.136123      0.264031     -0.211630
Fe           -0.352650      0.104333      0.023328
H            -0.066567      0.076233      0.031651
H            -0.425918      0.298156     -0.184455
H             0.092999      0.246657     -0.053499
H             0.433042      0.092105      0.202969
O            -0.184235      0.083195     -0.087731
O            -0.287537      0.256975      0.151321
O             0.198546      0.230815      0.113296
O             0.319245      0.087459     -0.159969
O            -0.038541      0.071489      0.133530
O            -0.454869      0.273468     -0.086586
O             0.068686      0.245357     -0.155699
O             0.454552      0.083238      0.099940
Fe            0.150655      0.410157      0.222425
Fe            0.364770     -0.419184     -0.024324
Fe           -0.162537     -0.425111     -0.238889
Fe           -0.347855      0.425800      0.031021
H            -0.075707      0.421895      0.071143
H            -0.427132     -0.413108     -0.202901
H             0.079253     -0.442443     -0.052840
H             0.435040      0.481050      0.207332
O            -0.190542      0.426865     -0.089674
O            -0.286739     -0.400835      0.141974
O             0.202163     -0.420958      0.091025
O             0.304634      0.414294     -0.144373
O            -0.052051      0.408825      0.172309
O            -0.448377     -0.399774     -0.100148
O             0.047059     -0.425507     -0.149858
O             0.466657      0.450604      0.111680
Fe            0.143036     -0.266540     -0.271097
Fe            0.358832     -0.091432      0.492818
Fe           -0.140536     -0.074519      0.277371
Fe           -0.371146     -0.243013     -0.471595
H            -0.098480     -0.243992     -0.448833
H            -0.371269     -0.073675      0.220500
H             0.096869     -0.088389      0.447236
H             0.427502     -0.266979     -0.286832
O            -0.214610     -0.238535      0.397836
O            -0.305375     -0.077891     -0.347308
O             0.195115     -0.095625     -0.391331
O             0.303966     -0.244402      0.353117
O            -0.053851     -0.252530     -0.355449
O            -0.460936     -0.094671      0.385253
O             0.049544     -0.091455      0.355948
O             0.445649     -0.256510     -0.389764
Fe            0.132810      0.074774     -0.293829
H             0.426162      0.191086     -0.421055
Fe           -0.145107      0.248656      0.291557
Fe           -0.362621      0.107582     -0.458759
H            -0.086610      0.079318     -0.447123
H            -0.388305      0.273649      0.301997
H             0.108287      0.226411      0.449555
H             0.382467      0.092179     -0.243490
O            -0.219693      0.083333      0.404997
O            -0.304560      0.271009     -0.339717
O             0.174755      0.232367     -0.426229
O             0.293643      0.068426      0.334357
O            -0.063398      0.101778     -0.347787
O            -0.436965      0.255905      0.389836
O             0.073298      0.229688      0.344808
O             0.443067      0.091089     -0.395870
Fe            0.143378      0.396387     -0.299675
Cu            0.357134     -0.415356      0.462132
Fe           -0.145828     -0.411000      0.283322
Fe           -0.373759      0.412729     -0.472072
H            -0.094285      0.407569     -0.460959
H            -0.394288     -0.428240      0.301671
H             0.095545     -0.407464      0.438839
H             0.413800      0.404324     -0.308486
O            -0.206464      0.425587      0.419994
O            -0.332310     -0.424404     -0.352696
O             0.186822     -0.422313     -0.406764
O             0.309297      0.416541      0.337246
O            -0.062575      0.429021     -0.361054
O            -0.436918     -0.429281      0.395946
O             0.049907     -0.416592      0.344368
O             0.449170      0.389314     -0.406585
H            -0.490541     -0.155600      0.308252
H             0.280191      0.124839      0.422568
H             0.353143      0.355278      0.406833
data_nwchem_pspw

_audit_creation_date   Tue Sep 26 20:56:39 2023
_audit_creation_method    generated by PSPW module of NWChem


_cell_length_a            10.0667
_cell_length_b             9.1552
_cell_length_c             9.2041
_cell_angle_alpha         90.0000
_cell_angle_beta          90.0000
_cell_angle_gamma         90.0000

_symmetry_space_group_name_H-M     P1  

loop_
_atom_site_type_symbol
_atom_site_fract_x
_atom_site_fract_y
_atom_site_fract_z
Fe            0.152730     -0.235001      0.230465
Fe            0.355696     -0.091681     -0.040788
Fe           -0.136617     -0.073891     -0.208227
Fe           -0.373205     -0.276248      0.005421
H            -0.097764     -0.227834      0.064312
H            -0.411976     -0.110777     -0.212484
H             0.094963     -0.068642     -0.048200
H             0.391654     -0.268874      0.200845
O            -0.208038     -0.242727     -0.091763
O            -0.299350     -0.101197      0.156026
O             0.206643     -0.073103      0.098309
O             0.289625     -0.254030     -0.142887
O            -0.047847     -0.237290      0.153478
O            -0.444595     -0.103157     -0.113440
O             0.059370     -0.069585     -0.146970
O             0.443946     -0.273603      0.107730
Fe            0.140752      0.088496      0.225715
Fe            0.368431      0.243839     -0.002589
Fe           -0.132500      0.271316     -0.232226
Fe           -0.354395      0.068609     -0.000677
H            -0.076576      0.077925      0.056530
H            -0.401790      0.260704     -0.206176
H             0.060501      0.261779     -0.052819
H             0.436619      0.078499      0.186909
O            -0.183006      0.091805     -0.087107
O            -0.300667      0.222274      0.141812
O             0.193517      0.240497      0.093587
O             0.321293      0.083874     -0.170147
O            -0.046650      0.080983      0.157292
O            -0.436272      0.255119     -0.105937
O             0.054574      0.256341     -0.157049
O             0.466399      0.077810      0.085945
Fe            0.139095      0.419078      0.217701
Fe            0.345629     -0.432867     -0.017750
Fe           -0.145064     -0.404905     -0.214328
Fe           -0.351577      0.401083      0.033135
H            -0.105090      0.449076      0.046255
H            -0.398505     -0.429749     -0.203431
H             0.091028     -0.427917     -0.054683
H             0.404134      0.407229      0.208319
O            -0.192802      0.419863     -0.085548
O            -0.298232     -0.422930      0.158126
O             0.193487     -0.418450      0.092535
O             0.291656      0.398994     -0.148884
O            -0.061034      0.423682      0.141693
O            -0.442011     -0.445641     -0.109970
O             0.056910     -0.419101     -0.152549
O             0.448383      0.410409      0.113048
Fe            0.125976     -0.243322     -0.285527
Fe            0.347384     -0.081077      0.470408
Fe           -0.141788     -0.079610      0.287462
Fe           -0.355991     -0.255313     -0.451061
H            -0.109673     -0.227033     -0.439536
H            -0.366554     -0.097487      0.243612
H             0.074722     -0.057902      0.444536
H             0.428136     -0.266554     -0.276027
O            -0.193760     -0.233881      0.419375
O            -0.295323     -0.077027     -0.334842
O             0.185835     -0.066804     -0.411727
O             0.317786     -0.236356      0.341998
O            -0.069073     -0.236659     -0.340287
O            -0.453022     -0.118772      0.371561
O             0.059511     -0.064349      0.341809
O             0.448916     -0.246853     -0.376865
Fe            0.147367      0.103311     -0.287205
H             0.412631      0.141948     -0.442522
Fe           -0.144566      0.263866      0.270716
Fe           -0.346922      0.077332     -0.462049
H            -0.119220      0.085099     -0.450777
H            -0.393414      0.241026      0.312382
H             0.094785      0.277464      0.439116
H             0.387020      0.060081     -0.244930
O            -0.195384      0.085984      0.412364
O            -0.295672      0.266459     -0.354654
O             0.179554      0.261480     -0.427442
O             0.308933      0.090025      0.319524
O            -0.060922      0.091762     -0.359503
O            -0.442783      0.250268      0.402720
O             0.053113      0.247010      0.342291
O             0.456448      0.055947     -0.406294
Fe            0.147924      0.418985     -0.296200
Cu            0.363262     -0.421058      0.497264
Fe           -0.155601     -0.402613      0.283266
Fe           -0.369157      0.409818     -0.480952
H            -0.095037      0.435284     -0.453856
H            -0.420251     -0.444394      0.296124
H             0.097680     -0.397349      0.448319
H             0.461353      0.411574     -0.284707
O            -0.213526      0.414365      0.407374
O            -0.301897     -0.434473     -0.360644
O             0.185738     -0.396301     -0.407918
O             0.285101      0.411130      0.359417
O            -0.054087      0.438358     -0.358175
O            -0.444052     -0.429825      0.396842
O             0.053279     -0.407806      0.353488
O             0.464168      0.394317     -0.387792
H            -0.481658     -0.209497      0.329301
H             0.349608      0.175342      0.361682
H             0.270715      0.350060      0.446026
data_nwchem_pspw

_audit_creation_date   Tue Sep 26 23:07:52 2023
_audit_creation_method    generated by PSPW module of NWChem


_cell_length_a            10.0667
_cell_length_b             9.1552
_cell_length_c             9.2041
_cell_angle_alpha         90.0000
_cell_angle_beta          90.0000
_cell_angle_gamma         90.0000

_symmetry_space_group_name_H-M     P1  

loop_
_atom_site_type_symbol
_atom_site_fract_x
_atom_site_fract_y
_atom_site_fract_z
Fe            0.149107     -0.275457      0.241426
Fe            0.338907     -0.073568     -0.010545
Fe           -0.152412     -0.077799     -0.216894
Fe           -0.367062     -0.226544      0.023163
H            -0.082279     -0.269062      0.048940
H            -0.418442     -0.090413     -0.203258
H             0.074561     -0.055066     -0.040080
H             0.409742     -0.246482      0.214028
O            -0.211259     -0.240994     -0.097188
O            -0.296395     -0.060394      0.148846
O             0.206768     -0.093494      0.128151
O             0.287185     -0.245109     -0.147713
O            -0.058404     -0.260923      0.150892
O            -0.457095     -0.060654     -0.109534
O             0.045222     -0.077265     -0.137576
O             0.439766     -0.239391      0.112579
Fe            0.153289      0.075009      0.233858
Fe            0.362037      0.276734     -0.021518
Fe           -0.140998      0.254916     -0.243136
Fe           -0.355044      0.100314     -0.003743
H            -0.057387      0.079952      0.049471
H            -0.414753      0.250169     -0.226038
H             0.111915      0.237297     -0.040614
H             0.438029      0.116433      0.192656
O            -0.194741      0.099868     -0.117712
O            -0.294186      0.256158      0.140904
O             0.207858      0.226939      0.093973
O             0.292086      0.088086     -0.158919
O            -0.031683      0.076219      0.149967
O            -0.443797      0.265852     -0.123495
O             0.062610      0.241267     -0.133095
O             0.445302      0.098687      0.090848
Fe            0.147296      0.394919      0.205362
Fe            0.346785     -0.404972     -0.013643
Fe           -0.141606     -0.419715     -0.216352
Fe           -0.347293      0.431089      0.017608
H            -0.087931      0.420179      0.055239
H            -0.468301     -0.407567     -0.217480
H             0.084192     -0.405645     -0.053735
H             0.470222      0.410312      0.204819
O            -0.199955      0.415813     -0.095948
O            -0.313091     -0.410782      0.155046
O             0.203258     -0.424640      0.115049
O             0.297476      0.436025     -0.142299
O            -0.047224      0.415761      0.150521
O            -0.462239     -0.404901     -0.114958
O             0.049419     -0.406611     -0.150861
O             0.457480      0.430486      0.102941
Fe            0.145490     -0.254688     -0.280790
Fe            0.348541     -0.090751     -0.495676
Fe           -0.121136     -0.093106      0.272372
Fe           -0.346503     -0.253846     -0.456756
H            -0.072322     -0.277329     -0.447726
H            -0.347859     -0.050698      0.234740
H             0.099969     -0.099944      0.445394
H             0.432207     -0.260966     -0.287041
O            -0.207169     -0.236536      0.400374
O            -0.301503     -0.086498     -0.344340
O             0.189746     -0.089997     -0.394130
O             0.305587     -0.244401      0.357625
O            -0.055417     -0.251377     -0.348214
O            -0.453012     -0.097067      0.405691
O             0.074463     -0.093196      0.345742
O             0.448957     -0.256729     -0.389562
Fe            0.130374      0.082776     -0.277030
H             0.410999      0.170782     -0.416225
Fe           -0.147508      0.258031      0.271402
Fe           -0.346575      0.081242     -0.499611
H            -0.080181      0.074424     -0.460875
H            -0.380955      0.248281      0.281551
H             0.112994      0.223502      0.439262
H             0.367950      0.074479     -0.225012
O            -0.182794      0.086457      0.391363
O            -0.307832      0.244746     -0.367846
O             0.187996      0.240132     -0.397681
O             0.306725      0.078091      0.354084
O            -0.055890      0.078404     -0.358756
O            -0.432550      0.260750      0.370934
O             0.064613      0.225877      0.347671
O             0.453220      0.076064     -0.411900
Fe            0.148581      0.405269     -0.276201
Cu            0.355053     -0.436002      0.482483
Fe           -0.159574     -0.404610      0.277476
Fe           -0.363950      0.407821     -0.482993
H            -0.066601      0.427337     -0.457798
H            -0.414888     -0.418409      0.295834
H             0.081826     -0.434457      0.464023
H             0.438938      0.412164     -0.302095
O            -0.203395      0.418284      0.398388
O            -0.304831     -0.429091     -0.354155
O             0.185784     -0.428965     -0.400555
O             0.287940      0.411091      0.365874
O            -0.048311      0.420175     -0.355097
O            -0.444822     -0.410578      0.398011
O             0.043355     -0.425088      0.364226
O             0.449908      0.392068     -0.404221
H            -0.473558     -0.177704      0.344631
H             0.359006      0.167933      0.346156
H             0.302031      0.323791      0.422745
data_nwchem_pspw

_audit_creation_date   Wed Sep 27 00:57:32 2023
_audit_creation_method    generated by PSPW module of NWChem


_cell_length_a            10.0667
_cell_length_b             9.1552
_cell_length_c             9.2041
_cell_angle_alpha         90.0000
_cell_angle_beta          90.0000
_cell_angle_gamma         90.0000

_symmetry_space_group_name_H-M     P1  

loop_
_atom_site_type_symbol
_atom_site_fract_x
_atom_site_fract_y
_atom_site_fract_z
Fe            0.154683     -0.240899      0.225790
Fe            0.358155     -0.097483     -0.028087
Fe           -0.154334     -0.097425     -0.234983
Fe           -0.362494     -0.267258      0.018155
H            -0.099677     -0.248593      0.068386
H            -0.421934     -0.073933     -0.205934
H             0.077270     -0.095334     -0.047351
H             0.428664     -0.249350      0.207144
O            -0.201259     -0.259933     -0.101229
O            -0.308433     -0.100373      0.162134
O             0.200532     -0.074657      0.104903
O             0.284561     -0.260616     -0.143204
O            -0.067776     -0.256672      0.167307
O            -0.449993     -0.079466     -0.103399
O             0.043131     -0.098676     -0.145029
O             0.448920     -0.262224      0.104919
Fe            0.138023      0.085304      0.222958
Fe            0.353499      0.240890     -0.023097
Fe           -0.146182      0.240284     -0.225919
Fe           -0.348705      0.076493      0.018615
H            -0.101902      0.079070      0.040049
H            -0.422701      0.273059     -0.198243
H             0.068336      0.239101     -0.043067
H             0.398527      0.072390      0.194470
O            -0.186361      0.062832     -0.080495
O            -0.293468      0.237143      0.150944
O             0.188282      0.235823      0.093739
O             0.306948      0.082173     -0.151073
O            -0.056535      0.080556      0.142433
O            -0.436395      0.262125     -0.095055
O             0.042096      0.245325     -0.143654
O             0.442529      0.075204      0.101671
Fe            0.143528      0.410348      0.233716
Fe            0.343191     -0.429486     -0.012599
Fe           -0.145322     -0.428851     -0.224475
Fe           -0.356028      0.416533      0.031360
H            -0.079398      0.412602      0.056812
H            -0.412977     -0.418212     -0.211059
H             0.073003     -0.444967     -0.047082
H             0.418863      0.391601      0.208061
O            -0.196981      0.418267     -0.088770
O            -0.299489     -0.423506      0.161784
O             0.195575     -0.415734      0.106041
O             0.299562      0.406058     -0.148959
O            -0.051976      0.407621      0.159120
O            -0.445211     -0.423252     -0.109305
O             0.043254     -0.411679     -0.139775
O             0.450944      0.405934      0.109019
Fe            0.137644     -0.259681     -0.273148
Fe            0.345751     -0.070974      0.481178
Fe           -0.132946     -0.077015      0.274627
Fe           -0.358463     -0.236442     -0.473187
H            -0.092197     -0.254499     -0.458179
H            -0.349656     -0.111367      0.258451
H             0.107128     -0.090681      0.447442
H             0.415379     -0.233593     -0.307690
O            -0.201195     -0.233046      0.412683
O            -0.316965     -0.065606     -0.348699
O             0.201659     -0.088239     -0.381725
O             0.306286     -0.238812      0.345243
O            -0.064760     -0.257876     -0.356405
O            -0.462526     -0.043284      0.389832
O             0.064320     -0.077090      0.353691
O             0.443572     -0.231820     -0.408036
Fe            0.150444      0.092032     -0.271631
H             0.411313      0.213465     -0.395533
Fe           -0.141675      0.238650      0.276940
Fe           -0.355744      0.108539     -0.483222
H            -0.083333      0.074220     -0.452602
H            -0.399174      0.287578      0.290092
H             0.096562      0.244145      0.450558
H             0.411963      0.091702     -0.278116
O            -0.187394      0.077341      0.410510
O            -0.304979      0.261506     -0.360527
O             0.193611      0.248883     -0.409828
O             0.310836      0.094924      0.332891
O            -0.056178      0.068996     -0.350580
O            -0.439958      0.283300      0.384731
O             0.061324      0.238236      0.352558
O             0.447875      0.115530     -0.378279
Fe            0.152960      0.415306     -0.296721
Cu            0.369870     -0.400291      0.456946
Fe           -0.139617     -0.416220      0.289744
Fe           -0.358651      0.431976     -0.483781
H            -0.098739      0.398834     -0.453387
H            -0.393857     -0.412566      0.288190
H             0.098917     -0.405026      0.470078
H             0.454216      0.459512     -0.303671
O            -0.202122      0.414696      0.407460
O            -0.312552     -0.415504     -0.347604
O             0.188462     -0.413371     -0.413119
O             0.307201      0.414606      0.350075
O            -0.053880      0.401051     -0.359693
O            -0.428283     -0.400803      0.391122
O             0.060089     -0.395361      0.368114
O             0.453067      0.421742     -0.401398
H            -0.464498      0.004624      0.297984
H             0.311061      0.181691      0.390431
H             0.297685      0.379472      0.449162
data_nwchem_pspw

_audit_creation_date   Wed Sep 27 02:54:24 2023
_audit_creation_method    generated by PSPW module of NWChem


_cell_length_a            10.0667
_cell_length_b             9.1552
_cell_length_c             9.2041
_cell_angle_alpha         90.0000
_cell_angle_beta          90.0000
_cell_angle_gamma         90.0000

_symmetry_space_group_name_H-M     P1  

loop_
_atom_site_type_symbol
_atom_site_fract_x
_atom_site_fract_y
_atom_site_fract_z
Fe            0.145370     -0.249033      0.211616
Fe            0.354888     -0.080355     -0.029304
Fe           -0.140641     -0.086568     -0.217170
Fe           -0.354719     -0.259661      0.032793
H            -0.056159     -0.233748      0.050170
H            -0.404004     -0.103581     -0.208945
H             0.083432     -0.059495     -0.069154
H             0.409942     -0.236015      0.190370
O            -0.202247     -0.257043     -0.091190
O            -0.314656     -0.078551      0.162796
O             0.191258     -0.075643      0.097101
O             0.309490     -0.243271     -0.174067
O            -0.053051     -0.233866      0.155668
O            -0.442256     -0.089497     -0.110969
O             0.053682     -0.070897     -0.167819
O             0.451145     -0.241375      0.096231
Fe            0.132213      0.084659      0.222765
Fe            0.347774      0.241546     -0.014370
Fe           -0.130598      0.251466     -0.195426
Fe           -0.358360      0.078657      0.013649
H            -0.094449      0.075342      0.055648
H            -0.390214      0.269021     -0.188780
H             0.090939      0.257278     -0.035657
H             0.393823      0.071100      0.201053
O            -0.187928      0.074721     -0.080947
O            -0.310487      0.251228      0.166606
O             0.192589      0.253352      0.110878
O             0.301262      0.081361     -0.157972
O            -0.052264      0.081334      0.155106
O            -0.445731      0.252869     -0.103467
O             0.059996      0.261413     -0.135184
O             0.446558      0.087819      0.107707
Fe            0.146492      0.429959      0.204637
Fe            0.351801     -0.407329     -0.030923
Fe           -0.161975     -0.420829     -0.223843
Fe           -0.364964      0.409636      0.041142
H            -0.111503      0.406074      0.063462
H            -0.429274     -0.430850     -0.201471
H             0.088771     -0.434643     -0.058367
H             0.423702      0.408880      0.196970
O            -0.204695      0.414435     -0.077273
O            -0.295404     -0.416596      0.161366
O             0.201475     -0.408472      0.087913
O             0.312646      0.409418     -0.151956
O            -0.059806      0.422968      0.152055
O            -0.459210     -0.400748     -0.107133
O             0.054226     -0.404986     -0.150214
O             0.445871      0.432181      0.098065
Fe            0.152063     -0.246582     -0.280607
Fe            0.339987     -0.097691      0.462440
Fe           -0.143164     -0.072054      0.296619
Fe           -0.360037     -0.254193     -0.482399
H            -0.090686     -0.252163     -0.442215
H            -0.384804     -0.105405      0.229937
H             0.108521     -0.074469      0.448007
H             0.427755     -0.253062     -0.316324
O            -0.196803     -0.241807      0.406681
O            -0.296730     -0.087488     -0.348258
O             0.187536     -0.079000     -0.409342
O             0.300529     -0.246615      0.324485
O            -0.053171     -0.257761     -0.344877
O            -0.459799     -0.081916      0.412925
O             0.050706     -0.076027      0.358489
O             0.446703     -0.266103     -0.417592
Fe            0.140791      0.101757     -0.292177
H             0.441869      0.221713     -0.398696
Fe           -0.145489      0.242004      0.270975
Fe           -0.360917      0.095745     -0.444807
H            -0.091557      0.089459     -0.440721
H            -0.378914      0.224248      0.320088
H             0.090568      0.234515      0.433150
H             0.401359      0.102076     -0.293997
O            -0.201301      0.081917      0.416083
O            -0.280914      0.264861     -0.351564
O             0.177874      0.252420     -0.414222
O             0.305563      0.072013      0.336037
O            -0.058462      0.090006     -0.339954
O            -0.441725      0.233815      0.401385
O             0.049805      0.235174      0.336753
O             0.444026      0.110090     -0.386720
Fe            0.149091      0.431218     -0.299453
Cu            0.381730     -0.444029      0.469717
Fe           -0.142581     -0.411821      0.278945
Fe           -0.351747      0.402064     -0.477509
H            -0.098694      0.405006     -0.432161
H            -0.388490     -0.432655      0.303829
H             0.099291     -0.416787      0.448128
H             0.442436      0.400864     -0.295555
O            -0.192598      0.411210      0.418126
O            -0.309232     -0.423731     -0.346558
O             0.207565     -0.411530     -0.418577
O             0.304049      0.406340      0.331523
O            -0.054758      0.426124     -0.339605
O            -0.427713     -0.431962      0.404182
O             0.055585     -0.408153      0.352841
O             0.469066      0.380194     -0.395968
H            -0.456237     -0.020483      0.328967
H             0.317087      0.154684      0.398866
H             0.272147      0.357056      0.416882
data_nwchem_pspw

_audit_creation_date   Wed Sep 27 04:59:05 2023
_audit_creation_method    generated by PSPW module of NWChem


_cell_length_a            10.0667
_cell_length_b             9.1552
_cell_length_c             9.2041
_cell_angle_alpha         90.0000
_cell_angle_beta          90.0000
_cell_angle_gamma         90.0000

_symmetry_space_group_name_H-M     P1  

loop_
_atom_site_type_symbol
_atom_site_fract_x
_atom_site_fract_y
_atom_site_fract_z
Fe            0.137608     -0.250287      0.227764
Fe            0.340313     -0.081692     -0.007072
Fe           -0.140704     -0.067542     -0.236326
Fe           -0.369881     -0.252236      0.017529
H            -0.081659     -0.225572      0.058257
H            -0.446909     -0.115059     -0.194153
H             0.056716     -0.055212     -0.045073
H             0.387542     -0.245673      0.222897
O            -0.200976     -0.248322     -0.108586
O            -0.299940     -0.070131      0.152395
O             0.189569     -0.071651      0.113722
O             0.287741     -0.247111     -0.147531
O            -0.057427     -0.247983      0.157941
O            -0.456082     -0.088060     -0.094727
O             0.034877     -0.080702     -0.144901
O             0.433321     -0.244145      0.126383
Fe            0.130668      0.087492      0.238020
Fe            0.332788      0.259923     -0.035620
Fe           -0.141121      0.249583     -0.220677
Fe           -0.375084      0.094022     -0.007064
H            -0.077706      0.070968      0.045850
H            -0.415345      0.254149     -0.210738
H             0.046547      0.225191     -0.023352
H             0.413373      0.075101      0.202148
O            -0.219731      0.085922     -0.106320
O            -0.317860      0.248464      0.143526
O             0.202898      0.235320      0.113511
O             0.306603      0.075812     -0.142376
O            -0.046634      0.081877      0.143811
O            -0.456526      0.257282     -0.113353
O             0.046485      0.236102     -0.126004
O             0.442563      0.097154      0.104632
Fe            0.162369      0.411852      0.236226
Fe            0.366331     -0.406783     -0.013623
Fe           -0.138478     -0.411791     -0.221985
Fe           -0.357707      0.409969      0.023161
H            -0.065995      0.427395      0.051901
H            -0.406803     -0.409676     -0.201702
H             0.102208     -0.432657     -0.047875
H             0.436427      0.420832      0.196469
O            -0.188172      0.418599     -0.091614
O            -0.304307     -0.414566      0.159391
O             0.205381     -0.435681      0.109614
O             0.301387      0.428461     -0.173934
O            -0.041301      0.412344      0.154503
O            -0.442273     -0.412475     -0.105329
O             0.056671     -0.420399     -0.140704
O             0.447500      0.428557      0.089802
Fe            0.138469     -0.258234     -0.281182
Fe            0.356804     -0.114971      0.489990
Fe           -0.145166     -0.071865      0.280049
Fe           -0.348103     -0.254458     -0.481072
H            -0.075146     -0.254868     -0.452626
H            -0.372265     -0.050553      0.217048
H             0.079519     -0.071620      0.456322
H             0.408819     -0.289387     -0.299538
O            -0.194886     -0.247176      0.394000
O            -0.293317     -0.078371     -0.367536
O             0.190279     -0.090522     -0.398311
O             0.291360     -0.263411      0.345509
O            -0.041035     -0.234456     -0.356672
O            -0.451894     -0.094410      0.392203
O             0.052382     -0.077006      0.355238
O             0.456980     -0.234148     -0.369043
Fe            0.152344      0.075025     -0.269480
H             0.416177      0.192174     -0.403986
Fe           -0.153303      0.248823      0.253205
Fe           -0.348917      0.100926     -0.468453
H            -0.060704      0.107886     -0.459103
H            -0.418693      0.249326      0.297789
H             0.096022      0.247095      0.461136
H             0.414619      0.079215     -0.268330
O            -0.196732      0.085690      0.406998
O            -0.296956      0.268936     -0.343319
O             0.193301      0.240583     -0.392903
O             0.295200      0.051095      0.369309
O            -0.032136      0.094760     -0.359956
O            -0.447092      0.248881      0.400132
O             0.064731      0.247808      0.357223
O             0.443978      0.097254     -0.370801
Fe            0.144401      0.408396     -0.286877
Cu            0.366374     -0.420740      0.483241
Fe           -0.139237     -0.423883      0.266576
Fe           -0.350238      0.417038     -0.490355
H            -0.071549      0.402491     -0.458333
H            -0.405289     -0.408229      0.287343
H             0.107860     -0.405012      0.453812
H             0.461697      0.442484     -0.299295
O            -0.194922      0.389645      0.394628
O            -0.285469     -0.417415     -0.370080
O             0.198158     -0.417153     -0.406325
O             0.333807      0.410361      0.349353
O            -0.046850      0.427021     -0.359879
O            -0.442050     -0.417483      0.388780
O             0.055876     -0.410823      0.363390
O             0.469864      0.418885     -0.400528
H            -0.459283     -0.169578      0.320638
H             0.269519      0.121379      0.441169
H             0.387417      0.328238      0.378890
data_nwchem_pspw

_audit_creation_date   Wed Sep 27 07:02:37 2023
_audit_creation_method    generated by PSPW module of NWChem


_cell_length_a            10.0667
_cell_length_b             9.1552
_cell_length_c             9.2041
_cell_angle_alpha         90.0000
_cell_angle_beta          90.0000
_cell_angle_gamma         90.0000

_symmetry_space_group_name_H-M     P1  

loop_
_atom_site_type_symbol
_atom_site_fract_x
_atom_site_fract_y
_atom_site_fract_z
Fe            0.139125     -0.241301      0.228635
Fe            0.348908     -0.091141     -0.024291
Fe           -0.159565     -0.082454     -0.229871
Fe           -0.352596     -0.269299      0.016307
H            -0.086185     -0.241258      0.059842
H            -0.460312     -0.135182     -0.187561
H             0.084031     -0.101236     -0.040126
H             0.412624     -0.276694      0.207904
O            -0.192603     -0.244437     -0.092448
O            -0.308033     -0.087476      0.170543
O             0.197551     -0.064267      0.118618
O             0.310635     -0.257645     -0.161027
O            -0.052192     -0.242898      0.157849
O            -0.447974     -0.092329     -0.094826
O             0.053876     -0.096420     -0.139678
O             0.446134     -0.272926      0.106094
Fe            0.135301      0.097503      0.234581
Fe            0.358843      0.234802     -0.030755
Fe           -0.135326      0.240942     -0.209427
Fe           -0.368751      0.088680      0.022534
H            -0.058027      0.068424      0.043050
H            -0.433148      0.247161     -0.213258
H             0.099953      0.263740     -0.033364
H             0.418479      0.066924      0.209960
O            -0.215628      0.075043     -0.112747
O            -0.301553      0.258838      0.135950
O             0.201686      0.248608      0.100801
O             0.314090      0.071660     -0.168135
O            -0.036654      0.094513      0.143212
O            -0.463520      0.234557     -0.111980
O             0.052013      0.245556     -0.125640
O             0.443710      0.070630      0.109853
Fe            0.156523      0.428903      0.230410
Fe            0.352422     -0.412659     -0.027982
Fe           -0.144393     -0.418655     -0.228905
Fe           -0.366309      0.417512      0.014540
H            -0.064893      0.402155      0.046861
H            -0.411738     -0.424942     -0.215875
H             0.086252     -0.449238     -0.050174
H             0.423323      0.438268      0.195784
O            -0.208844      0.413118     -0.106339
O            -0.293265     -0.429011      0.151445
O             0.206068     -0.402325      0.107114
O             0.298525      0.406723     -0.154892
O            -0.039412      0.413242      0.148904
O            -0.440099     -0.413077     -0.116807
O             0.044521     -0.426133     -0.140261
O             0.447886      0.427875      0.092754
Fe            0.148328     -0.256927     -0.255300
Fe            0.338637     -0.083991      0.479128
Fe           -0.145030     -0.086945      0.279773
Fe           -0.352401     -0.252017     -0.476687
H            -0.092358     -0.227496     -0.447046
H            -0.373852     -0.071498      0.247261
H             0.085931     -0.085735      0.455342
H             0.399511     -0.260597     -0.305260
O            -0.188402     -0.253493      0.415107
O            -0.306408     -0.068558     -0.371915
O             0.192228     -0.082967     -0.398696
O             0.305169     -0.254878      0.343988
O            -0.064639     -0.248562     -0.348910
O            -0.475930     -0.099706      0.387895
O             0.052951     -0.074002      0.353883
O             0.449052     -0.247393     -0.397389
Fe            0.144759      0.088019     -0.267765
H             0.406233      0.184545     -0.419604
Fe           -0.133133      0.254209      0.260069
Fe           -0.346626      0.117276     -0.479016
H            -0.054799      0.064921     -0.450618
H            -0.398405      0.265315      0.298252
H             0.090401      0.235812      0.454017
H             0.411974      0.075139     -0.286092
O            -0.207757      0.087697      0.380147
O            -0.303685      0.261606     -0.343400
O             0.196602      0.234183     -0.411535
O             0.290610      0.103454      0.354695
O            -0.048991      0.077432     -0.347998
O            -0.449620      0.255973      0.388856
O             0.063354      0.257479      0.352637
O             0.448949      0.098105     -0.386640
Fe            0.154997      0.404419     -0.298384
Cu            0.364530     -0.410950      0.481133
Fe           -0.148247     -0.418603      0.288219
Fe           -0.361224      0.414872     -0.480524
H            -0.086479      0.417240     -0.456995
H            -0.377678     -0.421477      0.301535
H             0.083809     -0.407513      0.458342
H             0.466102      0.443113     -0.298544
O            -0.198093      0.404385      0.409626
O            -0.298110     -0.433908     -0.348113
O             0.185116     -0.413560     -0.391169
O             0.314654      0.440957      0.341397
O            -0.045745      0.405935     -0.361644
O            -0.423431     -0.420316      0.399640
O             0.059727     -0.411613      0.355125
O             0.458956      0.431223     -0.401724
H             0.499085     -0.154706      0.305596
H             0.278000      0.164566      0.437377
H             0.338111      0.354147      0.390878
data_nwchem_pspw

_audit_creation_date   Wed Sep 27 09:17:30 2023
_audit_creation_method    generated by PSPW module of NWChem


_cell_length_a            10.0667
_cell_length_b             9.1552
_cell_length_c             9.2041
_cell_angle_alpha         90.0000
_cell_angle_beta          90.0000
_cell_angle_gamma         90.0000

_symmetry_space_group_name_H-M     P1  

loop_
_atom_site_type_symbol
_atom_site_fract_x
_atom_site_fract_y
_atom_site_fract_z
Fe            0.139419     -0.236109      0.220411
Fe            0.363454     -0.081140     -0.027377
Fe           -0.164668     -0.092748     -0.231290
Fe           -0.355171     -0.249005      0.030814
H            -0.088319     -0.249849      0.054515
H            -0.410122     -0.057672     -0.196662
H             0.080541     -0.084015     -0.069769
H             0.425888     -0.255754      0.200040
O            -0.207515     -0.248155     -0.089682
O            -0.312355     -0.078796      0.157957
O             0.199069     -0.071956      0.096951
O             0.306480     -0.239639     -0.145639
O            -0.057268     -0.250212      0.155619
O            -0.445361     -0.068194     -0.099315
O             0.047962     -0.085782     -0.167946
O             0.440908     -0.243226      0.098915
Fe            0.137527      0.080368      0.226023
Fe            0.356425      0.249646     -0.025055
Fe           -0.136920      0.266774     -0.202395
Fe           -0.341455      0.100939      0.020038
H            -0.061175      0.075548      0.037904
H            -0.397738      0.236549     -0.199491
H             0.082765      0.263938     -0.053882
H             0.404324      0.083880      0.195221
O            -0.184499      0.079728     -0.107573
O            -0.302180      0.250215      0.165199
O             0.192066      0.237003      0.094288
O             0.302446      0.084138     -0.160093
O            -0.047999      0.072726      0.141610
O            -0.439418      0.250192     -0.103641
O             0.065060      0.251511     -0.154801
O             0.446417      0.093407      0.102319
Fe            0.139577      0.419626      0.214792
Fe            0.342490     -0.416003     -0.028534
Fe           -0.146685     -0.410799     -0.246488
Fe           -0.348191      0.428841      0.020711
H            -0.089408      0.394095      0.059080
H            -0.391386     -0.411048     -0.186572
H             0.078500     -0.395576     -0.051284
H             0.409165      0.440082      0.189381
O            -0.182123      0.427957     -0.081478
O            -0.303338     -0.420288      0.160132
O             0.189880     -0.416681      0.103190
O             0.307462      0.411350     -0.150540
O            -0.059211      0.409122      0.158257
O            -0.441142     -0.408437     -0.094728
O             0.049224     -0.403759     -0.150642
O             0.454387      0.428656      0.095702
Fe            0.153630     -0.250358     -0.269657
Fe            0.335043     -0.116577      0.456036
Fe           -0.140382     -0.079568      0.280335
Fe           -0.356284     -0.268211     -0.463772
H            -0.098610     -0.246773     -0.457033
H            -0.375808     -0.083941      0.246524
H             0.084948     -0.079783      0.453174
H             0.424195     -0.231224     -0.306212
O            -0.219416     -0.246469      0.402500
O            -0.313516     -0.095971     -0.343650
O             0.193028     -0.087181     -0.402152
O             0.292419     -0.261242      0.322722
O            -0.066185     -0.248589     -0.358150
O            -0.462555     -0.055253      0.382290
O             0.049665     -0.060714      0.355933
O             0.447174     -0.241291     -0.407516
Fe            0.136846      0.089523     -0.280028
H             0.429607      0.212327     -0.406054
Fe           -0.150149      0.237678      0.279186
Fe           -0.352413      0.092501     -0.472712
H            -0.086950      0.106707     -0.453194
H            -0.391171      0.253261      0.302436
H             0.103914      0.233180      0.432825
H             0.402151      0.091041     -0.284484
O            -0.182195      0.081713      0.430051
O            -0.290825      0.253876     -0.341964
O             0.189675      0.248768     -0.418859
O             0.296307      0.075863      0.333535
O            -0.051990      0.101645     -0.351291
O            -0.432697      0.251574      0.399229
O             0.055772      0.242819      0.342728
O             0.453692      0.111987     -0.376309
Fe            0.172927      0.410167     -0.296202
Cu            0.368202     -0.427464      0.488896
Fe           -0.155609     -0.423510      0.289496
Fe           -0.358728      0.398826     -0.476081
H            -0.081775      0.374492     -0.439814
H            -0.404854     -0.412854      0.309507
H             0.074344     -0.431402      0.447978
H             0.446482      0.402223     -0.274691
O            -0.199550      0.420262      0.427607
O            -0.314124     -0.437378     -0.339148
O             0.197975     -0.401628     -0.397704
O             0.314068      0.424772      0.340711
O            -0.048336      0.410174     -0.347937
O            -0.436508     -0.434321      0.407824
O             0.036739     -0.417253      0.351810
O             0.461552      0.390079     -0.378231
H            -0.493498      0.030954      0.334128
H             0.277348      0.135226      0.419007
H             0.311557      0.333584      0.390027
data_nwchem_pspw

_audit_creation_date   Wed Sep 27 11:09:23 2023
_audit_creation_method    generated by PSPW module of NWChem


_cell_length_a            10.0667
_cell_length_b             9.1552
_cell_length_c             9.2041
_cell_angle_alpha         90.0000
_cell_angle_beta          90.0000
_cell_angle_gamma         90.0000

_symmetry_space_group_name_H-M     P1  

loop_
_atom_site_type_symbol
_atom_site_fract_x
_atom_site_fract_y
_atom_site_fract_z
Fe            0.159392     -0.246668      0.239682
Fe            0.324879     -0.099658     -0.021354
Fe           -0.147678     -0.085362     -0.217874
Fe           -0.350145     -0.257650      0.013306
H            -0.076861     -0.279777      0.042875
H            -0.421547     -0.085930     -0.188738
H             0.064605     -0.068406     -0.044405
H             0.445047     -0.214736      0.192286
O            -0.199099     -0.268335     -0.107724
O            -0.307104     -0.083522      0.142389
O             0.173623     -0.082285      0.103533
O             0.289966     -0.264327     -0.160668
O            -0.053460     -0.259490      0.144425
O            -0.460183     -0.072527     -0.092175
O             0.037216     -0.097576     -0.140748
O             0.455867     -0.254400      0.096175
Fe            0.132104      0.091918      0.215071
Fe            0.361733      0.248929     -0.033176
Fe           -0.154084      0.242538     -0.227712
Fe           -0.360838      0.093007      0.007277
H            -0.074286      0.092311      0.045655
H            -0.400766      0.272024     -0.212556
H             0.103990      0.244400     -0.055376
H             0.382561      0.105302      0.187110
O            -0.200221      0.086218     -0.097875
O            -0.286636      0.230072      0.149086
O             0.197734      0.246667      0.101235
O             0.305724      0.082582     -0.153688
O            -0.049970      0.082017      0.146831
O            -0.445072      0.256702     -0.118382
O             0.049606      0.230685     -0.140907
O             0.433707      0.081432      0.100845
Fe            0.159384      0.416721      0.227504
Fe            0.354040     -0.421237     -0.016348
Fe           -0.140318     -0.430395     -0.222942
Fe           -0.347994      0.414224      0.025038
H            -0.082116      0.419587      0.056053
H            -0.386853     -0.429589     -0.199315
H             0.095834     -0.437830     -0.054422
H             0.416007      0.425114      0.189538
O            -0.187122      0.409272     -0.077185
O            -0.305358     -0.410472      0.164301
O             0.189377     -0.415936      0.096689
O             0.302171      0.410792     -0.151619
O            -0.057883      0.424312      0.161522
O            -0.438174     -0.434089     -0.108594
O             0.055545     -0.424258     -0.150546
O             0.452864      0.411317      0.095008
Fe            0.135630     -0.254256     -0.286474
Fe            0.345014     -0.072560      0.476646
Fe           -0.138907     -0.106407      0.271495
Fe           -0.368763     -0.236585     -0.463402
H            -0.078711     -0.242702     -0.461742
H            -0.355493     -0.109216      0.231865
H             0.090247     -0.078607      0.450358
H             0.394989     -0.245401     -0.295620
O            -0.204918     -0.242959      0.405648
O            -0.314726     -0.080088     -0.339729
O             0.191796     -0.089777     -0.403985
O             0.313472     -0.221816      0.338965
O            -0.056611     -0.226661     -0.360909
O            -0.446682     -0.043142      0.385123
O             0.050788     -0.066000      0.351175
O             0.438160     -0.212363     -0.390495
Fe            0.142878      0.071156     -0.263432
H             0.453066      0.225653     -0.395295
Fe           -0.146737      0.242700      0.298890
Fe           -0.343883      0.094346     -0.469110
H            -0.071790      0.089309     -0.458851
H            -0.384332      0.257828      0.298040
H             0.085891      0.225354      0.454359
H             0.421474      0.081016     -0.286017
O            -0.187787      0.074699      0.400891
O            -0.304120      0.261963     -0.347907
O             0.178224      0.224730     -0.405745
O             0.295867      0.098066      0.339571
O            -0.055249      0.082688     -0.356257
O            -0.438894      0.259795      0.383365
O             0.059255      0.252921      0.350459
O             0.448074      0.110857     -0.388059
Fe            0.161843      0.408408     -0.293624
Cu            0.368640     -0.395384      0.477922
Fe           -0.143111     -0.422497      0.280852
Fe           -0.361766      0.429255     -0.493084
H            -0.090726      0.413562     -0.438769
H            -0.403776     -0.399694      0.300067
H             0.091963     -0.460511      0.453728
H             0.420826      0.423700     -0.310026
O            -0.199064      0.421988      0.426303
O            -0.317279     -0.429077     -0.350237
O             0.205138     -0.413876     -0.396157
O             0.317613      0.424736      0.354449
O            -0.047317      0.411533     -0.344314
O            -0.438136     -0.403432      0.400572
O             0.060372     -0.426352      0.360642
O             0.459592      0.408948     -0.405473
H            -0.498272      0.022061      0.325056
H             0.295843      0.180188      0.405440
H             0.386076      0.356961      0.382172
data_nwchem_pspw

_audit_creation_date   Wed Sep 27 13:10:57 2023
_audit_creation_method    generated by PSPW module of NWChem


_cell_length_a            10.0667
_cell_length_b             9.1552
_cell_length_c             9.2041
_cell_angle_alpha         90.0000
_cell_angle_beta          90.0000
_cell_angle_gamma         90.0000

_symmetry_space_group_name_H-M     P1  

loop_
_atom_site_type_symbol
_atom_site_fract_x
_atom_site_fract_y
_atom_site_fract_z
Fe            0.145339     -0.252815      0.237758
Fe            0.356856     -0.077497     -0.034272
Fe           -0.159993     -0.086524     -0.231828
Fe           -0.378578     -0.247457      0.008490
H            -0.092177     -0.265143      0.049613
H            -0.430692     -0.047522     -0.210596
H             0.082369     -0.102665     -0.041512
H             0.401328     -0.244512      0.200666
O            -0.212769     -0.252228     -0.104821
O            -0.317140     -0.082117      0.156160
O             0.202601     -0.081530      0.112384
O             0.298669     -0.245258     -0.139090
O            -0.057460     -0.247776      0.146023
O            -0.463329     -0.069736     -0.112717
O             0.040823     -0.092882     -0.135193
O             0.439973     -0.229470      0.102024
Fe            0.131909      0.083474      0.220714
Fe            0.363188      0.257325     -0.012247
Fe           -0.138201      0.258469     -0.221478
Fe           -0.354888      0.093048      0.024995
H            -0.061654      0.087609      0.027707
H            -0.402351      0.258010     -0.192190
H             0.068292      0.249225     -0.032692
H             0.402146      0.101670      0.197426
O            -0.201769      0.079414     -0.106811
O            -0.284660      0.264415      0.128460
O             0.208244      0.240269      0.111232
O             0.287300      0.086212     -0.146206
O            -0.041706      0.078285      0.131138
O            -0.437963      0.256054     -0.092709
O             0.056921      0.254937     -0.137803
O             0.442537      0.097041      0.101795
Fe            0.155219      0.407492      0.217074
Fe            0.348245     -0.411532     -0.016301
Fe           -0.136241     -0.407301     -0.226110
Fe           -0.350627      0.449480      0.013148
H            -0.092609      0.446371      0.057936
H            -0.419334     -0.418285     -0.210499
H             0.091106     -0.429691     -0.045374
H             0.422238      0.445817      0.210430
O            -0.191365      0.430464     -0.096141
O            -0.299244     -0.413661      0.160007
O             0.197239     -0.420164      0.104522
O             0.314427      0.418476     -0.142853
O            -0.051372      0.420709      0.150109
O            -0.452944     -0.410721     -0.110345
O             0.058968     -0.423995     -0.144900
O             0.461661      0.428887      0.115414
Fe            0.143454     -0.257155     -0.266329
Fe            0.339302     -0.113800      0.468924
Fe           -0.144088     -0.092760      0.283750
Fe           -0.369023     -0.265092     -0.473066
H            -0.067510     -0.227197     -0.453811
H            -0.388517     -0.099770      0.224082
H             0.061154     -0.038809      0.449802
H             0.410238     -0.228643     -0.293735
O            -0.212601     -0.246026      0.409106
O            -0.313967     -0.083474     -0.359948
O             0.187995     -0.096770     -0.408377
O             0.316346     -0.274079      0.335644
O            -0.044566     -0.248027     -0.355384
O            -0.469884     -0.058648      0.398789
O             0.048115     -0.063948      0.348832
O             0.436123     -0.253295     -0.393338
Fe            0.141016      0.069735     -0.276317
H             0.425907      0.211997     -0.367588
Fe           -0.135452      0.252109      0.258717
Fe           -0.341438      0.086003     -0.476657
H            -0.085851      0.104116     -0.458530
H            -0.386496      0.265292      0.310608
H             0.121606      0.242862     -0.496451
H             0.393709      0.066125     -0.287658
O            -0.198231      0.086508      0.387968
O            -0.310042      0.258916     -0.337489
O             0.181551      0.229989     -0.414074
O             0.291742      0.079626      0.351702
O            -0.064292      0.079380     -0.360354
O            -0.425627      0.251843      0.406140
O             0.060933      0.234031      0.330775
O             0.442496      0.105533     -0.367906
Fe            0.151165      0.412474     -0.289938
Cu            0.364280     -0.426100      0.484597
Fe           -0.140019     -0.411221      0.294935
Fe           -0.353521      0.409099     -0.477631
H            -0.091403      0.410850     -0.439218
H            -0.383194     -0.406299      0.299568
H             0.113541     -0.419863      0.448308
H             0.435950      0.425427     -0.292369
O            -0.193115      0.414609      0.407296
O            -0.295290     -0.432853     -0.353360
O             0.186630     -0.422274     -0.402810
O             0.317603      0.417681      0.357068
O            -0.040643      0.411595     -0.351346
O            -0.424843     -0.423698      0.395686
O             0.067351     -0.424039      0.352471
O             0.453301      0.417359     -0.396247
H             0.491415      0.024888      0.354288
H             0.275289      0.143570      0.435214
H             0.366730      0.329928      0.378968
data_nwchem_pspw

_audit_creation_date   Wed Sep 27 15:27:40 2023
_audit_creation_method    generated by PSPW module of NWChem


_cell_length_a            10.0667
_cell_length_b             9.1552
_cell_length_c             9.2041
_cell_angle_alpha         90.0000
_cell_angle_beta          90.0000
_cell_angle_gamma         90.0000

_symmetry_space_group_name_H-M     P1  

loop_
_atom_site_type_symbol
_atom_site_fract_x
_atom_site_fract_y
_atom_site_fract_z
Fe            0.136450     -0.249929      0.220931
Fe            0.351793     -0.091209     -0.025333
Fe           -0.151130     -0.072942     -0.216984
Fe           -0.345089     -0.279897      0.025729
H            -0.061784     -0.266304      0.043991
H            -0.415845     -0.076730     -0.199987
H             0.086388     -0.076020     -0.047005
H             0.442346     -0.243939      0.207813
O            -0.193108     -0.247956     -0.097108
O            -0.295520     -0.092168      0.154011
O             0.200829     -0.079390      0.097964
O             0.293303     -0.228047     -0.157814
O            -0.050942     -0.246806      0.146510
O            -0.451696     -0.081437     -0.101991
O             0.045097     -0.066164     -0.143170
O             0.456434     -0.253754      0.104031
Fe            0.131760      0.080355      0.220697
Fe            0.359549      0.241691     -0.008318
Fe           -0.131859      0.258329     -0.218799
Fe           -0.356359      0.075597      0.021745
H            -0.073155      0.081471      0.043617
H            -0.402531      0.241441     -0.206342
H             0.093354      0.259899     -0.034904
H             0.397639      0.091114      0.208740
O            -0.198611      0.076599     -0.091288
O            -0.295977      0.232501      0.152853
O             0.198124      0.232925      0.101871
O             0.304774      0.092185     -0.147911
O            -0.052223      0.061623      0.145276
O            -0.443874      0.241136     -0.106688
O             0.063806      0.285801     -0.132872
O             0.443527      0.062868      0.114656
Fe            0.143487      0.409026      0.216468
Fe            0.352597     -0.405227     -0.035576
Fe           -0.156577     -0.417073     -0.224701
Fe           -0.360606      0.399864      0.022100
H            -0.101300      0.407800      0.049051
H            -0.436878     -0.415277     -0.205207
H             0.096545     -0.421254     -0.061004
H             0.412092      0.440180      0.196755
O            -0.206210      0.423549     -0.090651
O            -0.301793     -0.449148      0.160415
O             0.200123     -0.420863      0.092032
O             0.308984      0.416005     -0.165624
O            -0.052860      0.415286      0.139183
O            -0.452873     -0.424818     -0.102300
O             0.052655     -0.398980     -0.153222
O             0.451765      0.417356      0.102502
Fe            0.133788     -0.241782     -0.280307
Fe            0.331037     -0.093312      0.479399
Fe           -0.148048     -0.082996      0.293073
Fe           -0.346535     -0.256883     -0.463029
H            -0.103402     -0.223892     -0.444320
H            -0.365457     -0.089419      0.228690
H             0.091700     -0.085011      0.445293
H             0.435202     -0.208211     -0.297228
O            -0.200259     -0.250889      0.399191
O            -0.297978     -0.073192     -0.354042
O             0.183443     -0.068838     -0.404388
O             0.293576     -0.246118      0.351755
O            -0.064716     -0.234621     -0.347751
O            -0.468961     -0.056118      0.392774
O             0.058975     -0.081877      0.341990
O             0.448779     -0.232395     -0.398035
Fe            0.146850      0.100421     -0.265327
H             0.417810      0.210170     -0.373699
Fe           -0.139050      0.244096      0.259874
Fe           -0.353032      0.090708     -0.481077
H            -0.079102      0.110254     -0.440419
H            -0.397772      0.248923      0.299259
H             0.142276      0.257929     -0.494365
H             0.427988      0.065254     -0.291139
O            -0.193880      0.086349      0.401475
O            -0.308453      0.254974     -0.333422
O             0.209101      0.249123     -0.417336
O             0.299072      0.088343      0.334643
O            -0.051184      0.090153     -0.342424
O            -0.440055      0.259516      0.395053
O             0.070447      0.238160      0.332888
O             0.432350      0.104184     -0.392536
Fe            0.154655      0.441390     -0.280319
Cu            0.373653     -0.407612      0.480350
Fe           -0.145223     -0.423967      0.271290
Fe           -0.354874      0.399139     -0.483402
H            -0.100298      0.406265     -0.443819
H            -0.399122     -0.416684      0.309346
H             0.103031     -0.420643      0.439761
H             0.450075      0.422174     -0.292313
O            -0.195690      0.412399      0.410302
O            -0.315573     -0.441444     -0.352027
O             0.178730     -0.401850     -0.411031
O             0.310592      0.443641      0.336232
O            -0.056628      0.411352     -0.346744
O            -0.427681     -0.417554      0.409664
O             0.056929     -0.421586      0.346838
O             0.463306      0.402073     -0.394568
H            -0.496000      0.011435      0.319370
H             0.297031      0.168288      0.402827
H             0.359962      0.375620      0.394219
data_nwchem_pspw

_audit_creation_date   Wed Sep 27 17:21:25 2023
_audit_creation_method    generated by PSPW module of NWChem


_cell_length_a            10.0667
_cell_length_b             9.1552
_cell_length_c             9.2041
_cell_angle_alpha         90.0000
_cell_angle_beta          90.0000
_cell_angle_gamma         90.0000

_symmetry_space_group_name_H-M     P1  

loop_
_atom_site_type_symbol
_atom_site_fract_x
_atom_site_fract_y
_atom_site_fract_z
Fe            0.141275     -0.253189      0.230382
Fe            0.340132     -0.088425     -0.018590
Fe           -0.143382     -0.102625     -0.237192
Fe           -0.357252     -0.256014      0.025353
H            -0.091533     -0.227653      0.063084
H            -0.434762     -0.093492     -0.216217
H             0.076820     -0.095101     -0.045484
H             0.379062     -0.255667      0.189356
O            -0.194653     -0.251165     -0.088925
O            -0.315596     -0.081554      0.164845
O             0.188130     -0.061729      0.107072
O             0.307708     -0.253885     -0.150213
O            -0.048039     -0.241473      0.158808
O            -0.456807     -0.102563     -0.115139
O             0.050666     -0.089875     -0.147294
O             0.432251     -0.246986      0.098827
Fe            0.130215      0.104812      0.221827
Fe            0.344534      0.244586     -0.022607
Fe           -0.143795      0.230366     -0.236707
Fe           -0.355323      0.092918     -0.010391
H            -0.072572      0.107778      0.034180
H            -0.397590      0.282112     -0.211290
H             0.078212      0.229515     -0.053636
H             0.418161      0.110557      0.190795
O            -0.181136      0.077935     -0.108397
O            -0.286661      0.244529      0.142429
O             0.195990      0.255580      0.113826
O             0.297978      0.082697     -0.158293
O            -0.042005      0.087084      0.132542
O            -0.433909      0.258793     -0.115295
O             0.046178      0.249053     -0.148503
O             0.451942      0.097726      0.093471
Fe            0.142015      0.421895      0.244630
Fe            0.357848     -0.431186     -0.024380
Fe           -0.141038     -0.432710     -0.217751
Fe           -0.328932      0.408865      0.026715
H            -0.067587      0.425280      0.046168
H            -0.430560     -0.437775     -0.199616
H             0.101694     -0.414801     -0.044390
H             0.453928      0.414141      0.204055
O            -0.178315      0.402475     -0.089843
O            -0.309558     -0.419786      0.159668
O             0.194039     -0.416029      0.100059
O             0.297210      0.398062     -0.160227
O            -0.045851      0.437260      0.151156
O            -0.448304     -0.434961     -0.097621
O             0.064425     -0.421860     -0.141753
O             0.459747      0.407796      0.099619
Fe            0.147156     -0.245887     -0.260194
Fe            0.337637     -0.089626      0.464615
Fe           -0.145160     -0.074596      0.283218
Fe           -0.344547     -0.256985     -0.441337
H            -0.053373     -0.275998     -0.437237
H            -0.381286     -0.065711      0.241920
H             0.068495     -0.044910      0.438532
H             0.429256     -0.257915     -0.313810
O            -0.201212     -0.218782      0.425490
O            -0.312830     -0.073485     -0.343725
O             0.187443     -0.087859     -0.412075
O             0.305716     -0.247132      0.336284
O            -0.051187     -0.272408     -0.332394
O            -0.467421     -0.021802      0.397954
O             0.053563     -0.050771      0.333788
O             0.443398     -0.257737     -0.417734
Fe            0.148619      0.073473     -0.286610
H             0.448375      0.222796     -0.391501
Fe           -0.135920      0.247868      0.265530
Fe           -0.361445      0.100608     -0.478344
H            -0.073355      0.107748     -0.464935
H            -0.396560      0.291785      0.297468
H             0.108107      0.241220     -0.484285
H             0.404235      0.099029     -0.278823
O            -0.194462      0.095647      0.410963
O            -0.309262      0.261084     -0.345337
O             0.186932      0.242234     -0.419166
O             0.294615      0.099995      0.334389
O            -0.054614      0.055596     -0.375225
O            -0.438915      0.271818      0.388286
O             0.044025      0.262457      0.346263
O             0.448705      0.113526     -0.375511
Fe            0.142354      0.407465     -0.278070
Cu            0.366911     -0.424196      0.476690
Fe           -0.155201     -0.399925      0.272356
Fe           -0.355708      0.422857     -0.489858
H            -0.096206      0.421623     -0.454784
H            -0.400119     -0.394528      0.301947
H             0.091330     -0.402833      0.473650
H             0.455370      0.450947     -0.296500
O            -0.208189      0.417464      0.397242
O            -0.298955     -0.443144     -0.340786
O             0.196441     -0.419149     -0.377081
O             0.295037      0.419733      0.372578
O            -0.046725      0.396730     -0.360748
O            -0.418259     -0.405574      0.407275
O             0.042726     -0.394265      0.382124
O             0.473439      0.407101     -0.389028
H             0.478061      0.055568      0.357454
H             0.305206      0.187740      0.388309
H             0.278834      0.348731      0.448642
data_nwchem_pspw

_audit_creation_date   Fri Sep 29 20:41:52 2023
_audit_creation_method    generated by PSPW module of NWChem


_cell_length_a            10.0667
_cell_length_b             9.1552
_cell_length_c             9.2041
_cell_angle_alpha         90.0000
_cell_angle_beta          90.0000
_cell_angle_gamma         90.0000

_symmetry_space_group_name_H-M     P1  

loop_
_atom_site_type_symbol
_atom_site_fract_x
_atom_site_fract_y
_atom_site_fract_z
Fe            0.148862     -0.258564      0.219059
Fe            0.351910     -0.082203     -0.032017
Fe           -0.154993     -0.075355     -0.211703
Fe           -0.359950     -0.252475      0.032109
H            -0.091360     -0.250233      0.036905
H            -0.414957     -0.095137     -0.201963
H             0.094672     -0.087785     -0.044678
H             0.424365     -0.256882      0.195701
O            -0.207244     -0.246206     -0.089281
O            -0.306456     -0.086919      0.162188
O             0.198296     -0.086998      0.099208
O             0.290666     -0.251709     -0.150026
O            -0.050884     -0.251556      0.134317
O            -0.446778     -0.084838     -0.102500
O             0.044849     -0.075367     -0.134231
O             0.449012     -0.254322      0.093831
Fe            0.140910      0.076488      0.227123
Fe            0.351305      0.250834     -0.029956
Fe           -0.146982      0.265649     -0.237314
Fe           -0.362093      0.094065      0.030538
H            -0.065450      0.093508      0.058088
H            -0.425704      0.266615     -0.198967
H             0.074878      0.252309     -0.047013
H             0.410082      0.079277      0.198716
O            -0.208747      0.099184     -0.104946
O            -0.298169      0.251721      0.163561
O             0.199937      0.234377      0.096131
O             0.299673      0.086426     -0.164279
O            -0.043356      0.075442      0.157742
O            -0.464503      0.271935     -0.102962
O             0.042938      0.269199     -0.145035
O             0.453531      0.091243      0.100923
Fe            0.146958      0.383059      0.227677
Fe            0.353533     -0.429019     -0.024850
Fe           -0.145669     -0.407172     -0.232111
Fe           -0.363477      0.409413      0.029075
H            -0.072593      0.402349      0.038281
H            -0.412507     -0.422569     -0.196926
H             0.059438     -0.428133     -0.029832
H             0.420247      0.412059      0.222026
O            -0.223287      0.419746     -0.106229
O            -0.295647     -0.421124      0.156655
O             0.190760     -0.450138      0.109552
O             0.309741      0.419882     -0.168145
O            -0.043955      0.409286      0.139338
O            -0.458462     -0.414216     -0.103046
O             0.042620     -0.395506     -0.128574
O             0.444839      0.414407      0.119128
Fe            0.131446     -0.238257     -0.273449
Fe            0.352854     -0.096817      0.460905
Fe           -0.135451     -0.092417      0.275559
Fe           -0.342161     -0.266453     -0.461099
H            -0.106984     -0.217070     -0.444854
H            -0.368856     -0.092464      0.247897
H             0.098733     -0.082079      0.449508
H             0.413124     -0.239931     -0.293707
O            -0.193063     -0.245248      0.404917
O            -0.311735     -0.087735     -0.351859
O             0.193777     -0.073947     -0.406614
O             0.291838     -0.257472      0.344728
O            -0.063045     -0.227049     -0.348707
O            -0.455728     -0.057432      0.380132
O             0.069989     -0.088031      0.345676
O             0.446999     -0.233233     -0.393226
Fe            0.140398      0.092006     -0.266136
H             0.415020      0.208326     -0.409959
Fe           -0.134246      0.254826      0.272681
Fe           -0.340072      0.083223     -0.475591
H            -0.093122      0.074314     -0.436403
H            -0.393945      0.228684      0.303753
H             0.110185      0.245037     -0.459314
H             0.380063      0.083076     -0.313320
O            -0.181136      0.073469      0.393550
O            -0.314829      0.256188     -0.335930
O             0.179195      0.264946     -0.392063
O             0.314233      0.076824      0.321902
O            -0.055691      0.081928     -0.339607
O            -0.420835      0.239967      0.404971
O             0.064315      0.227814      0.337810
O             0.430140      0.102583     -0.403825
Fe            0.137735      0.451028     -0.277527
Cu            0.378094     -0.421614      0.474473
Fe           -0.140228     -0.410201      0.269811
Fe           -0.348215      0.402558     -0.476860
H            -0.090481      0.430869     -0.470888
H            -0.392380     -0.418964      0.305072
H             0.080697     -0.406248      0.442786
H             0.420785      0.404763     -0.313064
O            -0.196181      0.417609      0.403445
O            -0.308948     -0.431264     -0.340864
O             0.200624     -0.385426     -0.399484
O             0.287754      0.398625      0.373440
O            -0.052639      0.433195     -0.371385
O            -0.422949     -0.419507      0.407394
O             0.048910     -0.426783      0.346159
O             0.451283      0.386514     -0.412351
H            -0.478228      0.040583      0.353884
H             0.317733      0.167066      0.374728
H             0.252848      0.350921      0.458403
data_nwchem_pspw

_audit_creation_date   Fri Sep 29 22:51:54 2023
_audit_creation_method    generated by PSPW module of NWChem


_cell_length_a            10.0667
_cell_length_b             9.1552
_cell_length_c             9.2041
_cell_angle_alpha         90.0000
_cell_angle_beta          90.0000
_cell_angle_gamma         90.0000

_symmetry_space_group_name_H-M     P1  

loop_
_atom_site_type_symbol
_atom_site_fract_x
_atom_site_fract_y
_atom_site_fract_z
Fe            0.148164     -0.251389      0.221710
Fe            0.354110     -0.076637     -0.030598
Fe           -0.156647     -0.092734     -0.203595
Fe           -0.368490     -0.262294      0.008203
H            -0.090184     -0.234825      0.054644
H            -0.424485     -0.046154     -0.202699
H             0.077808     -0.077712     -0.036479
H             0.426345     -0.278361      0.202099
O            -0.203852     -0.268525     -0.090027
O            -0.299128     -0.095086      0.155276
O             0.195207     -0.077064      0.094871
O             0.305556     -0.263225     -0.143720
O            -0.057808     -0.235993      0.153574
O            -0.445434     -0.072169     -0.102853
O             0.042918     -0.089317     -0.134821
O             0.441931     -0.256385      0.101739
Fe            0.127395      0.090680      0.210223
Fe            0.366590      0.246003     -0.018900
Fe           -0.136248      0.247211     -0.232567
Fe           -0.356320      0.093923      0.031296
H            -0.075418      0.055980      0.036866
H            -0.394194      0.232958     -0.211390
H             0.101696      0.258032     -0.052284
H             0.389383      0.099422      0.191920
O            -0.203824      0.084792     -0.092699
O            -0.319129      0.267191      0.151999
O             0.196738      0.239196      0.096672
O             0.305233      0.089024     -0.146677
O            -0.043784      0.097375      0.128730
O            -0.438701      0.241155     -0.117173
O             0.058812      0.246138     -0.148065
O             0.440148      0.083820      0.103295
Fe            0.128449      0.403175      0.226402
Fe            0.342470     -0.427297     -0.013032
Fe           -0.130451     -0.418816     -0.239028
Fe           -0.350280      0.414374     -0.005319
H            -0.096883      0.409507      0.044777
H            -0.414031     -0.425664     -0.222971
H             0.095041     -0.417104     -0.045132
H             0.443809      0.432525      0.202286
O            -0.194253      0.413363     -0.112408
O            -0.305821     -0.420779      0.143472
O             0.185344     -0.429244      0.105357
O             0.299840      0.406472     -0.128487
O            -0.063794      0.417534      0.144501
O            -0.452124     -0.427203     -0.126464
O             0.058019     -0.421318     -0.143003
O             0.449882      0.417035      0.099922
Fe            0.150262     -0.246539     -0.270793
Fe            0.344174     -0.079776      0.489088
Fe           -0.125121     -0.073306      0.293356
Fe           -0.357433     -0.255372     -0.478110
H            -0.079868     -0.226380     -0.446221
H            -0.360084     -0.122299      0.226836
H             0.103146     -0.082108      0.449769
H             0.414636     -0.268298     -0.314263
O            -0.194234     -0.233893      0.411865
O            -0.295069     -0.091759     -0.342210
O             0.197973     -0.070245     -0.387262
O             0.295305     -0.249385      0.348006
O            -0.053981     -0.248966     -0.348177
O            -0.471135     -0.083831      0.397461
O             0.072755     -0.078770      0.349974
O             0.441821     -0.247743     -0.413887
Fe            0.143529      0.081079     -0.256484
H             0.428831      0.177189     -0.435120
Fe           -0.156073      0.264308      0.274544
Fe           -0.350605      0.069047     -0.469987
H            -0.089025      0.100102     -0.450192
H            -0.408228      0.253235      0.309801
H             0.130977      0.257989     -0.485477
H             0.390392      0.107681     -0.281246
O            -0.196180      0.096490      0.389571
O            -0.306089      0.255562     -0.357735
O             0.199543      0.251266     -0.408078
O             0.291575      0.087985      0.336732
O            -0.062630      0.082548     -0.351394
O            -0.434888      0.249511      0.411317
O             0.050932      0.238680      0.342232
O             0.448896      0.100806     -0.369683
Fe            0.163424      0.419706     -0.288875
Cu            0.373781     -0.407853      0.464291
Fe           -0.164489     -0.405916      0.280594
Fe           -0.356972      0.411988     -0.471833
H            -0.081199      0.396505     -0.454274
H            -0.406886     -0.442892      0.302028
H             0.084676     -0.426570      0.438070
H             0.443133      0.441888     -0.282662
O            -0.192452      0.411092      0.417729
O            -0.293157     -0.421932     -0.371434
O             0.199879     -0.405111     -0.388500
O             0.304791      0.422302      0.360077
O            -0.034470      0.419489     -0.360629
O            -0.418271     -0.429674      0.406232
O             0.047606     -0.413682      0.344575
O             0.450539      0.427671     -0.385803
H            -0.484251     -0.036513      0.306968
H             0.272775      0.175672      0.386946
H             0.310728      0.355840      0.442881
data_nwchem_pspw

_audit_creation_date   Sat Sep 30 00:53:04 2023
_audit_creation_method    generated by PSPW module of NWChem


_cell_length_a            10.0667
_cell_length_b             9.1552
_cell_length_c             9.2041
_cell_angle_alpha         90.0000
_cell_angle_beta          90.0000
_cell_angle_gamma         90.0000

_symmetry_space_group_name_H-M     P1  

loop_
_atom_site_type_symbol
_atom_site_fract_x
_atom_site_fract_y
_atom_site_fract_z
Fe            0.147787     -0.265931      0.203942
Fe            0.348273     -0.086178     -0.026718
Fe           -0.157463     -0.089562     -0.233268
Fe           -0.352442     -0.253070      0.014427
H            -0.099987     -0.262829      0.060487
H            -0.413983     -0.076470     -0.207236
H             0.089684     -0.083715     -0.054680
H             0.414966     -0.259449      0.222295
O            -0.196184     -0.243748     -0.096707
O            -0.300499     -0.076835      0.167445
O             0.190058     -0.079489      0.093342
O             0.295341     -0.251034     -0.143436
O            -0.058240     -0.256425      0.155293
O            -0.455646     -0.089151     -0.110172
O             0.038377     -0.081304     -0.145005
O             0.459487     -0.265467      0.124925
Fe            0.134625      0.092380      0.210231
Fe            0.359493      0.247537     -0.048377
Fe           -0.144639      0.247707     -0.232650
Fe           -0.348492      0.092079      0.019347
H            -0.063598      0.095745      0.031273
H            -0.398610      0.271768     -0.202465
H             0.105148      0.241239     -0.058636
H             0.414618      0.099845      0.184557
O            -0.201113      0.079908     -0.117120
O            -0.289026      0.238561      0.161688
O             0.211076      0.243557      0.096311
O             0.291204      0.078125     -0.161113
O            -0.054127      0.083527      0.134621
O            -0.438020      0.257946     -0.107400
O             0.063286      0.242832     -0.154393
O             0.450306      0.098032      0.088244
Fe            0.145062      0.406429      0.243520
Fe            0.354896     -0.414174     -0.008735
Fe           -0.148468     -0.419921     -0.227765
Fe           -0.342067      0.421301      0.037803
H            -0.076831      0.412595      0.067824
H            -0.420945     -0.412188     -0.197828
H             0.077586     -0.465888     -0.046419
H             0.424517      0.429331      0.217132
O            -0.186986      0.424686     -0.089601
O            -0.303432     -0.403646      0.165759
O             0.203352     -0.435479      0.106357
O             0.306358      0.423288     -0.146959
O            -0.043635      0.408462      0.167825
O            -0.443940     -0.412879     -0.094524
O             0.046141     -0.436823     -0.140742
O             0.459169      0.421893      0.119590
Fe            0.131631     -0.252739     -0.253658
Fe            0.341604     -0.092030      0.474193
Fe           -0.137581     -0.079418      0.270776
Fe           -0.342587     -0.261081     -0.463077
H            -0.078880     -0.261680     -0.452865
H            -0.369714     -0.078047      0.247781
H             0.086488     -0.091464      0.418783
H             0.397624     -0.244359     -0.301843
O            -0.197731     -0.244044      0.403433
O            -0.312643     -0.088470     -0.362176
O             0.196353     -0.093056     -0.400357
O             0.296016     -0.251415      0.336702
O            -0.050896     -0.270191     -0.353030
O            -0.452782     -0.055007      0.371553
O             0.068456     -0.081325      0.317083
O             0.447662     -0.231703     -0.389870
Fe            0.138192      0.080871     -0.302866
H             0.425602      0.208952     -0.407660
Fe           -0.140017      0.260976      0.287193
Fe           -0.348351      0.084769     -0.483808
H            -0.093253      0.086361     -0.460579
H            -0.416927      0.274961      0.300900
H             0.134781      0.245446      0.498501
H             0.402534      0.099548     -0.280339
O            -0.181644      0.081214      0.404531
O            -0.293968      0.259266     -0.372215
O             0.187538      0.255831     -0.411283
O             0.292659      0.075711      0.322258
O            -0.059421      0.084544     -0.357598
O            -0.445809      0.253786      0.400373
O             0.059913      0.240658      0.343040
O             0.445545      0.109266     -0.383053
Fe            0.148318      0.421834     -0.278273
Cu            0.362020     -0.413240     -0.495426
Fe           -0.144975     -0.409462      0.291056
Fe           -0.372901      0.415274     -0.484530
H            -0.084959      0.421785     -0.443436
H            -0.406105     -0.398698      0.310704
H             0.081621     -0.398042      0.464880
H             0.457188      0.430345     -0.285963
O            -0.220156      0.419127      0.402313
O            -0.313255     -0.429739     -0.349188
O             0.196029     -0.396042     -0.383578
O             0.298448      0.419333      0.367608
O            -0.057113      0.415288     -0.343153
O            -0.440619     -0.415965      0.409507
O             0.051280     -0.419730      0.367311
O             0.452130      0.423558     -0.389523
H            -0.491838      0.009171      0.301321
H             0.309844      0.174433      0.349059
H             0.313417      0.363826      0.454331
data_nwchem_pspw

_audit_creation_date   Sat Sep 30 02:49:59 2023
_audit_creation_method    generated by PSPW module of NWChem


_cell_length_a            10.0667
_cell_length_b             9.1552
_cell_length_c             9.2041
_cell_angle_alpha         90.0000
_cell_angle_beta          90.0000
_cell_angle_gamma         90.0000

_symmetry_space_group_name_H-M     P1  

loop_
_atom_site_type_symbol
_atom_site_fract_x
_atom_site_fract_y
_atom_site_fract_z
Fe            0.144733     -0.248542      0.223872
Fe            0.359606     -0.083907     -0.027209
Fe           -0.137301     -0.078349     -0.220920
Fe           -0.355258     -0.266465      0.000613
H            -0.089745     -0.242172      0.055694
H            -0.405432     -0.090321     -0.208883
H             0.083418     -0.093451     -0.026940
H             0.416069     -0.246161      0.196983
O            -0.191315     -0.251797     -0.102333
O            -0.312371     -0.113112      0.145013
O             0.183191     -0.077804      0.103855
O             0.317528     -0.245599     -0.159470
O            -0.066564     -0.247626      0.156889
O            -0.440479     -0.091714     -0.109725
O             0.062506     -0.082878     -0.130631
O             0.454694     -0.235382      0.100946
Fe            0.124064      0.080198      0.227570
Fe            0.344185      0.257753     -0.028880
Fe           -0.144606      0.252927     -0.223857
Fe           -0.353196      0.086875      0.015764
H            -0.087676      0.100060      0.053116
H            -0.405783      0.271827     -0.194194
H             0.085658      0.259114     -0.047249
H             0.412853      0.102727      0.204015
O            -0.191006      0.083054     -0.095763
O            -0.292629      0.253035      0.164662
O             0.183041      0.232239      0.096067
O             0.314586      0.082571     -0.155928
O            -0.053644      0.080814      0.152194
O            -0.446850      0.254605     -0.100864
O             0.043592      0.253814     -0.146503
O             0.449312      0.106669      0.105860
Fe            0.140882      0.409017      0.237196
Fe            0.349323     -0.413348     -0.033167
Fe           -0.144359     -0.421481     -0.232455
Fe           -0.356291      0.402260      0.043220
H            -0.102769      0.406943      0.065107
H            -0.412418     -0.424169     -0.202681
H             0.095127     -0.425937     -0.039807
H             0.403616      0.439251      0.200699
O            -0.196045      0.413560     -0.074128
O            -0.317607     -0.423398      0.152637
O             0.193593     -0.411879      0.101006
O             0.295975      0.417154     -0.162780
O            -0.065555      0.420301      0.164223
O            -0.444599     -0.439146     -0.104818
O             0.060608     -0.425543     -0.140080
O             0.446322      0.417733      0.107732
Fe            0.151249     -0.228395     -0.264278
Fe            0.335531     -0.105158      0.464891
Fe           -0.137617     -0.086574      0.280658
Fe           -0.342934     -0.253398     -0.471866
H            -0.078235     -0.254164     -0.457378
H            -0.382144     -0.131098      0.213792
H             0.088456     -0.066664      0.464258
H             0.425202     -0.240588     -0.303803
O            -0.201704     -0.240763      0.402011
O            -0.295451     -0.077775     -0.360673
O             0.192197     -0.063328     -0.405106
O             0.303940     -0.261201      0.334754
O            -0.057521     -0.244505     -0.354230
O            -0.459484     -0.063001      0.397611
O             0.053605     -0.077726      0.363766
O             0.455212     -0.245830     -0.408657
Fe            0.157187      0.102311     -0.265346
H             0.419839      0.192702     -0.400889
Fe           -0.138892      0.248139      0.293585
Fe           -0.349660      0.087090     -0.478447
H            -0.055141      0.065595     -0.452856
H            -0.396325      0.251633      0.297095
H             0.156015      0.246864     -0.494346
H             0.410396      0.069516     -0.290165
O            -0.190936      0.079135      0.401311
O            -0.289156      0.250869     -0.360792
O             0.209066      0.259622     -0.401958
O             0.293770      0.082800      0.340494
O            -0.037015      0.070617     -0.350339
O            -0.440169      0.256726      0.391332
O             0.053220      0.240359      0.344482
O             0.445698      0.092263     -0.386517
Fe            0.127342      0.431677     -0.295300
Cu            0.356676     -0.417301      0.488396
Fe           -0.155514     -0.413207      0.263920
Fe           -0.355420      0.405076     -0.485911
H            -0.101692      0.415352     -0.454105
H            -0.408024     -0.420008      0.309261
H             0.101119     -0.419131      0.446631
H             0.469308      0.413583     -0.302335
O            -0.199926      0.421004      0.409233
O            -0.304575     -0.428432     -0.348448
O             0.197153     -0.392337     -0.398950
O             0.305211      0.409587      0.349158
O            -0.068185      0.415822     -0.353817
O            -0.426706     -0.426858      0.413814
O             0.053415     -0.414961      0.351469
O             0.463740      0.393655     -0.403466
H            -0.477982     -0.009670      0.310647
H             0.286386      0.160191      0.408854
H             0.370469      0.347613      0.394966
data_nwchem_pspw

_audit_creation_date   Sat Sep 30 04:52:19 2023
_audit_creation_method    generated by PSPW module of NWChem


_cell_length_a            10.0667
_cell_length_b             9.1552
_cell_length_c             9.2041
_cell_angle_alpha         90.0000
_cell_angle_beta          90.0000
_cell_angle_gamma         90.0000

_symmetry_space_group_name_H-M     P1  

loop_
_atom_site_type_symbol
_atom_site_fract_x
_atom_site_fract_y
_atom_site_fract_z
Fe            0.143032     -0.243433      0.227248
Fe            0.358129     -0.077462      0.002450
Fe           -0.139367     -0.113371     -0.233825
Fe           -0.354842     -0.265634      0.009406
H            -0.057224     -0.271696      0.043948
H            -0.427975     -0.066815     -0.194929
H             0.101215     -0.108032     -0.039950
H             0.418795     -0.270761      0.203977
O            -0.217660     -0.263604     -0.120434
O            -0.305388     -0.087041      0.135103
O             0.186829     -0.072074      0.114491
O             0.302399     -0.231751     -0.152589
O            -0.051480     -0.240218      0.142094
O            -0.443110     -0.071622     -0.092011
O             0.060719     -0.106875     -0.136855
O             0.444324     -0.246290      0.107904
Fe            0.134552      0.095002      0.251831
Fe            0.347428      0.250301     -0.031760
Fe           -0.144975      0.240017     -0.220395
Fe           -0.343725      0.100313      0.005415
H            -0.065891      0.085370      0.038163
H            -0.390182      0.257651     -0.204384
H             0.056827      0.241051     -0.049107
H             0.415548      0.113669      0.208010
O            -0.175716      0.062171     -0.094868
O            -0.302630      0.252387      0.156184
O             0.196149      0.243402      0.108571
O             0.290669      0.081438     -0.140780
O            -0.041676      0.100361      0.140512
O            -0.433748      0.252749     -0.106067
O             0.038763      0.261329     -0.149045
O             0.450447      0.099790      0.110916
Fe            0.145467      0.411982      0.232773
Fe            0.345194     -0.424101     -0.044679
Fe           -0.160477     -0.426733     -0.239370
Fe           -0.361337      0.431887      0.025838
H            -0.087010      0.437051      0.038236
H            -0.440139     -0.396795     -0.225222
H             0.043335     -0.431837     -0.052363
H             0.388137      0.442912      0.177219
O            -0.201553      0.408740     -0.108670
O            -0.290588     -0.403480      0.149098
O             0.198792     -0.426863      0.102140
O             0.290339      0.413633     -0.170836
O            -0.054222      0.436030      0.139147
O            -0.452704     -0.416285     -0.122158
O             0.032986     -0.402749     -0.152223
O             0.438579      0.417896      0.088402
Fe            0.148343     -0.266451     -0.254836
Fe            0.355473     -0.115412     -0.495643
Fe           -0.138052     -0.062948      0.264629
Fe           -0.348971     -0.239711     -0.477776
H            -0.086413     -0.229856     -0.446781
H            -0.372639     -0.089491      0.205892
H             0.084314     -0.075005      0.455583
H             0.423909     -0.239414     -0.281131
O            -0.191532     -0.219491      0.392480
O            -0.278752     -0.067348     -0.359700
O             0.203415     -0.099188     -0.387291
O             0.298839     -0.239928      0.341472
O            -0.058189     -0.258594     -0.350057
O            -0.467370     -0.072886      0.402548
O             0.054036     -0.067186      0.356831
O             0.459364     -0.255462     -0.379702
Fe            0.133794      0.059228     -0.281590
H             0.424865      0.222841     -0.382246
Fe           -0.142251      0.263805      0.276027
Fe           -0.355529      0.086961     -0.484839
H            -0.082235      0.090497     -0.453516
H            -0.384305      0.257001      0.312034
H             0.146231      0.232139     -0.494999
H             0.404054      0.106899     -0.264476
O            -0.190405      0.097430      0.399803
O            -0.298004      0.254362     -0.351018
O             0.193483      0.227252     -0.401952
O             0.307287      0.075741      0.349562
O            -0.048376      0.079004     -0.354927
O            -0.434407      0.256521      0.408833
O             0.048108      0.244563      0.353133
O             0.446019      0.122746     -0.362499
Fe            0.142627      0.408663     -0.301374
Cu            0.355494     -0.411867      0.496608
Fe           -0.134348     -0.405342      0.282448
Fe           -0.360286      0.416818     -0.477239
H            -0.073334      0.411259     -0.464225
H            -0.405298     -0.430242      0.298940
H             0.101123     -0.411244      0.459678
H             0.434981      0.426976     -0.307975
O            -0.195900      0.433860      0.407482
O            -0.306921     -0.428166     -0.354720
O             0.165268     -0.410324     -0.412709
O             0.319415      0.420032      0.346500
O            -0.049654      0.392250     -0.360588
O            -0.434991     -0.423285      0.398450
O             0.064087     -0.419586      0.351823
O             0.457310      0.409040     -0.407101
H            -0.490407     -0.039988      0.307197
H             0.339586      0.149091      0.413822
H             0.399233      0.361421      0.354515
data_nwchem_pspw

_audit_creation_date   Sat Sep 30 06:57:39 2023
_audit_creation_method    generated by PSPW module of NWChem


_cell_length_a            10.0667
_cell_length_b             9.1552
_cell_length_c             9.2041
_cell_angle_alpha         90.0000
_cell_angle_beta          90.0000
_cell_angle_gamma         90.0000

_symmetry_space_group_name_H-M     P1  

loop_
_atom_site_type_symbol
_atom_site_fract_x
_atom_site_fract_y
_atom_site_fract_z
Fe            0.154396     -0.273855      0.233405
Fe            0.337012     -0.088397     -0.007282
Fe           -0.140483     -0.069163     -0.242562
Fe           -0.342250     -0.253637      0.010624
H            -0.069037     -0.262183      0.051299
H            -0.399003     -0.117079     -0.194236
H             0.082317     -0.061685     -0.053589
H             0.419306     -0.259920      0.206633
O            -0.193730     -0.238226     -0.116499
O            -0.305392     -0.089388      0.151293
O             0.171910     -0.092429      0.098718
O             0.275306     -0.243276     -0.142487
O            -0.042913     -0.265209      0.151959
O            -0.437963     -0.088267     -0.102492
O             0.059114     -0.066295     -0.157635
O             0.461688     -0.259708      0.113149
Fe            0.127395      0.065866      0.232629
Fe            0.336282      0.256482     -0.044337
Fe           -0.138734      0.246184     -0.234838
Fe           -0.362033      0.092345      0.011055
H            -0.092465      0.048124      0.047389
H            -0.450821      0.284568     -0.194622
H             0.080503      0.266072     -0.061139
H             0.409610      0.114690      0.183584
O            -0.194630      0.091258     -0.084161
O            -0.312351      0.244006      0.159519
O             0.204874      0.216275      0.100686
O             0.321339      0.084223     -0.155207
O            -0.055992      0.075791      0.141146
O            -0.453431      0.270492     -0.090954
O             0.052910      0.263001     -0.161475
O             0.450812      0.074278      0.099658
Fe            0.145003      0.391980      0.228683
Fe            0.349611     -0.410573     -0.028186
Fe           -0.151946     -0.423902     -0.226410
Fe           -0.354729      0.420993      0.037644
H            -0.073800      0.389677      0.063050
H            -0.415643     -0.414137     -0.201730
H             0.067697     -0.436499     -0.048010
H             0.407829      0.408009      0.211127
O            -0.202051      0.407242     -0.095564
O            -0.284194     -0.410659      0.145085
O             0.196958     -0.432904      0.098461
O             0.297029      0.435717     -0.170891
O            -0.045333      0.405206      0.163676
O            -0.453168     -0.397634     -0.106343
O             0.038004     -0.417661     -0.146234
O             0.435162      0.408773      0.109535
Fe            0.131561     -0.243354     -0.271700
Fe            0.350449     -0.082027      0.491107
Fe           -0.121240     -0.094283      0.276326
Fe           -0.339103     -0.266177     -0.484203
H            -0.055655     -0.252548     -0.443940
H            -0.361748     -0.103236      0.234858
H             0.099373     -0.059752      0.454152
H             0.423674     -0.241339     -0.288814
O            -0.179252     -0.248435      0.405063
O            -0.314062     -0.093936     -0.352920
O             0.189751     -0.071884     -0.408927
O             0.306157     -0.234367      0.358884
O            -0.052771     -0.259483     -0.340671
O            -0.464449     -0.065496      0.402427
O             0.058689     -0.086934      0.361583
O             0.449172     -0.242069     -0.390415
Fe            0.167090      0.088883     -0.282404
H             0.415126      0.206234     -0.420148
Fe           -0.147334      0.235133      0.270464
Fe           -0.356863      0.089675     -0.452009
H            -0.068001      0.094638     -0.469547
H            -0.392501      0.241308      0.326847
H             0.143905      0.237342     -0.485439
H             0.415105      0.108359     -0.267697
O            -0.198701      0.070933      0.399460
O            -0.294226      0.258667     -0.349641
O             0.210083      0.257861     -0.412987
O             0.287041      0.076187      0.351933
O            -0.052564      0.098480     -0.366607
O            -0.448365      0.251652      0.412827
O             0.058842      0.215732      0.339411
O             0.443928      0.117252     -0.374686
Fe            0.131092      0.443278     -0.295962
Cu            0.372857     -0.395742      0.479462
Fe           -0.142956     -0.423230      0.288110
Fe           -0.368340      0.421015     -0.479896
H            -0.095765      0.429438     -0.462171
H            -0.398138     -0.426005      0.290267
H             0.108875     -0.417641      0.444303
H             0.436376      0.470397     -0.294637
O            -0.209213      0.418867      0.401306
O            -0.305398     -0.429255     -0.351358
O             0.191302     -0.386519     -0.399090
O             0.297607      0.429644      0.366469
O            -0.052852      0.419944     -0.365674
O            -0.431825     -0.419453      0.389782
O             0.061393     -0.430474      0.352691
O             0.449494      0.428168     -0.390777
H            -0.476690      0.013681      0.335945
H             0.281369      0.176198      0.379539
H             0.309930      0.364363      0.446821
data_nwchem_pspw

_audit_creation_date   Sat Sep 30 08:48:00 2023
_audit_creation_method    generated by PSPW module of NWChem


_cell_length_a            10.0667
_cell_length_b             9.1552
_cell_length_c             9.2041
_cell_angle_alpha         90.0000
_cell_angle_beta          90.0000
_cell_angle_gamma         90.0000

_symmetry_space_group_name_H-M     P1  

loop_
_atom_site_type_symbol
_atom_site_fract_x
_atom_site_fract_y
_atom_site_fract_z
Fe            0.146292     -0.257886      0.206251
Fe            0.344842     -0.077401     -0.015676
Fe           -0.148266     -0.096559     -0.236119
Fe           -0.363648     -0.235717      0.002755
H            -0.078926     -0.224910      0.055185
H            -0.426489     -0.057180     -0.223259
H             0.072027     -0.080948     -0.046973
H             0.417013     -0.258044      0.201175
O            -0.197474     -0.257021     -0.094325
O            -0.307239     -0.077941      0.142843
O             0.189264     -0.069620      0.110319
O             0.305238     -0.243919     -0.146722
O            -0.057660     -0.241710      0.158355
O            -0.446689     -0.082933     -0.123714
O             0.045182     -0.080348     -0.147582
O             0.448753     -0.255195      0.100691
Fe            0.125615      0.088851      0.242035
Fe            0.347088      0.249865     -0.051315
Fe           -0.140450      0.245754     -0.214933
Fe           -0.348919      0.083218      0.006122
H            -0.079456      0.099985      0.054303
H            -0.403971      0.236096     -0.201099
H             0.080379      0.248456     -0.048609
H             0.408216      0.111597      0.185835
O            -0.167927      0.069817     -0.088070
O            -0.294649      0.248410      0.163287
O             0.200235      0.239236      0.103956
O             0.307386      0.074481     -0.165337
O            -0.052224      0.103163      0.158175
O            -0.449464      0.237570     -0.106831
O             0.060638      0.244647     -0.150680
O             0.450650      0.069579      0.102979
Fe            0.142109      0.405101      0.211737
Fe            0.358115     -0.423717     -0.032556
Fe           -0.151009     -0.426767     -0.208692
Fe           -0.356403      0.418382      0.042681
H            -0.107964      0.418552      0.061841
H            -0.402508     -0.435588     -0.182717
H             0.068050     -0.460014     -0.045132
H             0.412540      0.415300      0.185169
O            -0.210070      0.401971     -0.091150
O            -0.309406     -0.402023      0.164663
O             0.215695     -0.419234      0.102014
O             0.312342      0.416896     -0.180752
O            -0.049749      0.433435      0.145110
O            -0.443466     -0.417353     -0.088257
O             0.055198     -0.425386     -0.144177
O             0.438247      0.398486      0.087661
Fe            0.158022     -0.252366     -0.267302
Fe            0.351685     -0.091026      0.479021
Fe           -0.141215     -0.075939      0.288150
Fe           -0.353537     -0.260690     -0.469138
H            -0.089710     -0.265112     -0.438921
H            -0.363045     -0.101139      0.228531
H             0.078703     -0.072113      0.460283
H             0.431694     -0.252343     -0.305919
O            -0.198074     -0.239053      0.406137
O            -0.301956     -0.072864     -0.352191
O             0.199997     -0.088416     -0.400336
O             0.296126     -0.237965      0.346421
O            -0.048143     -0.269753     -0.344148
O            -0.455594     -0.055080      0.386805
O             0.053554     -0.062472      0.359938
O             0.457559     -0.257409     -0.408504
Fe            0.139953      0.074892     -0.278590
H             0.449405      0.215508     -0.401053
Fe           -0.140350      0.267894      0.279139
Fe           -0.345298      0.085681     -0.483096
H            -0.093902      0.080595     -0.460592
H            -0.392595      0.249751      0.307066
H             0.121566      0.247770     -0.496330
H             0.402879      0.107087     -0.278486
O            -0.176858      0.092321      0.406229
O            -0.304660      0.261703     -0.348195
O             0.179016      0.244352     -0.407065
O             0.295144      0.081278      0.339385
O            -0.060216      0.079169     -0.359799
O            -0.442901      0.253084      0.401535
O             0.063309      0.254158      0.345003
O             0.448235      0.114000     -0.373428
Fe            0.149257      0.421487     -0.296071
Cu            0.360160     -0.428712      0.498169
Fe           -0.151845     -0.406558      0.278254
Fe           -0.363055      0.419458     -0.477194
H            -0.114603      0.410436     -0.437924
H            -0.387444     -0.424944      0.301316
H             0.098932     -0.412158      0.438383
H             0.453048      0.449992     -0.285075
O            -0.201237      0.425670      0.415890
O            -0.298632     -0.419670     -0.346147
O             0.201563     -0.411001     -0.393882
O             0.282780      0.423116      0.360342
O            -0.060990      0.415066     -0.348287
O            -0.434503     -0.423599      0.399756
O             0.052354     -0.411224      0.346850
O             0.466790      0.411491     -0.381162
H            -0.481167      0.009984      0.310656
H             0.313282      0.156425      0.409528
H             0.328461      0.332509      0.367189
data_nwchem_pspw

_audit_creation_date   Sat Sep 30 10:48:06 2023
_audit_creation_method    generated by PSPW module of NWChem


_cell_length_a            10.0667
_cell_length_b             9.1552
_cell_length_c             9.2041
_cell_angle_alpha         90.0000
_cell_angle_beta          90.0000
_cell_angle_gamma         90.0000

_symmetry_space_group_name_H-M     P1  

loop_
_atom_site_type_symbol
_atom_site_fract_x
_atom_site_fract_y
_atom_site_fract_z
Fe            0.148628     -0.250108      0.240808
Fe            0.356755     -0.085213     -0.026175
Fe           -0.157711     -0.095848     -0.233144
Fe           -0.356097     -0.270901     -0.001344
H            -0.064878     -0.216539      0.042223
H            -0.422301     -0.066944     -0.202926
H             0.071904     -0.071521     -0.040655
H             0.427036     -0.242216      0.202078
O            -0.186948     -0.260160     -0.087639
O            -0.299636     -0.096883      0.142732
O             0.198549     -0.082275      0.098696
O             0.308540     -0.245737     -0.145155
O            -0.037646     -0.231278      0.141640
O            -0.450692     -0.081385     -0.103577
O             0.054923     -0.080486     -0.145469
O             0.452223     -0.264805      0.103060
Fe            0.125595      0.085490      0.221655
Fe            0.348887      0.255534     -0.020670
Fe           -0.145992      0.248199     -0.224857
Fe           -0.358887      0.083240      0.019909
H            -0.077569      0.104878      0.038699
H            -0.408974      0.228140     -0.209527
H             0.068156      0.251688     -0.053866
H             0.384289      0.106667      0.196569
O            -0.217724      0.086630     -0.109256
O            -0.301315      0.252687      0.162499
O             0.189274      0.239132      0.099751
O             0.309540      0.086579     -0.157813
O            -0.051597      0.095095      0.142708
O            -0.436837      0.242021     -0.108966
O             0.058400      0.262684     -0.157819
O             0.426386      0.079234      0.104055
Fe            0.142125      0.408637      0.235763
Fe            0.344343     -0.416388     -0.015534
Fe           -0.142846     -0.427989     -0.217021
Fe           -0.352954      0.408496      0.038678
H            -0.095280      0.420997      0.060823
H            -0.384643     -0.459127     -0.200313
H             0.068008     -0.416592     -0.041630
H             0.422129      0.418634      0.196311
O            -0.210611      0.409544     -0.098824
O            -0.295433     -0.414427      0.147136
O             0.190689     -0.424563      0.104281
O             0.301292      0.422257     -0.158232
O            -0.052934      0.419163      0.155117
O            -0.440263     -0.441243     -0.115887
O             0.048561     -0.420967     -0.143468
O             0.438498      0.427302      0.092530
Fe            0.153247     -0.242785     -0.263630
Fe            0.356700     -0.066983      0.487527
Fe           -0.130218     -0.075101      0.265818
Fe           -0.334052     -0.265595     -0.481816
H            -0.080381     -0.238359     -0.447518
H            -0.365332     -0.112447      0.219352
H             0.094713     -0.079404      0.456871
H             0.445677     -0.258273     -0.310282
O            -0.202963     -0.243205      0.381991
O            -0.308634     -0.095862     -0.364029
O             0.210619     -0.070523     -0.388514
O             0.303530     -0.215399      0.353367
O            -0.051340     -0.255960     -0.349229
O            -0.456264     -0.056715      0.364461
O             0.059172     -0.084296      0.356351
O             0.462909     -0.247190     -0.412715
Fe            0.142648      0.088659     -0.283669
H             0.413418      0.186658     -0.409983
Fe           -0.145880      0.248831      0.310298
Fe           -0.360659      0.075050     -0.478532
H            -0.072286      0.066652     -0.452664
H            -0.408586      0.256877      0.299104
H             0.125681      0.248083     -0.498450
H             0.374405      0.074857     -0.241729
O            -0.187182      0.061342      0.408041
O            -0.303130      0.255377     -0.364725
O             0.193896      0.245617     -0.420589
O             0.282385      0.085880      0.350551
O            -0.044516      0.066123     -0.348016
O            -0.432335      0.256411      0.400144
O             0.048416      0.246300      0.355950
O             0.443330      0.087212     -0.402044
Fe            0.143177      0.434853     -0.286534
Cu            0.355064     -0.397474      0.481824
Fe           -0.146673     -0.412532      0.270988
Fe           -0.359813      0.413631     -0.490823
H            -0.080361      0.401377     -0.452980
H            -0.385805     -0.414335      0.297045
H             0.064296     -0.416793      0.462495
H             0.455623      0.424128     -0.303081
O            -0.198588      0.415240      0.416948
O            -0.296774     -0.433467     -0.354179
O             0.183047     -0.400952     -0.391283
O             0.312029      0.415824      0.353645
O            -0.052186      0.409461     -0.351477
O            -0.427502     -0.430833      0.390347
O             0.039569     -0.390646      0.364740
O             0.464266      0.402610     -0.404979
H            -0.474645      0.022587      0.298795
H             0.277117      0.175162      0.403908
H             0.334161      0.352584      0.433020
data_nwchem_pspw

_audit_creation_date   Sat Sep 30 12:52:25 2023
_audit_creation_method    generated by PSPW module of NWChem


_cell_length_a            10.0667
_cell_length_b             9.1552
_cell_length_c             9.2041
_cell_angle_alpha         90.0000
_cell_angle_beta          90.0000
_cell_angle_gamma         90.0000

_symmetry_space_group_name_H-M     P1  

loop_
_atom_site_type_symbol
_atom_site_fract_x
_atom_site_fract_y
_atom_site_fract_z
Fe            0.148345     -0.259163      0.208491
Fe            0.358026     -0.067906     -0.023059
Fe           -0.151345     -0.074289     -0.220098
Fe           -0.376924     -0.249581      0.014980
H            -0.097833     -0.263804      0.052524
H            -0.397416     -0.064975     -0.197574
H             0.062026     -0.078823     -0.045008
H             0.410146     -0.242638      0.201812
O            -0.216705     -0.248825     -0.100887
O            -0.318584     -0.086605      0.150831
O             0.186837     -0.079336      0.098989
O             0.293213     -0.254174     -0.136314
O            -0.055835     -0.253342      0.149787
O            -0.442934     -0.060420     -0.100969
O             0.033165     -0.080799     -0.144853
O             0.439760     -0.247964      0.101493
Fe            0.132688      0.083165      0.217450
Fe            0.351140      0.241229     -0.028073
Fe           -0.152467      0.253161     -0.223443
Fe           -0.342683      0.102671      0.033706
H            -0.082079      0.101345      0.049793
H            -0.430018      0.237025     -0.193833
H             0.059150      0.280724     -0.043025
H             0.398590      0.122621      0.193834
O            -0.212813      0.093808     -0.103392
O            -0.291385      0.264647      0.168436
O             0.188551      0.225881      0.092088
O             0.298721      0.073090     -0.163982
O            -0.058160      0.079043      0.146819
O            -0.455319      0.254954     -0.095214
O             0.050955      0.259727     -0.144885
O             0.450414      0.098104      0.108658
Fe            0.140233      0.396586      0.240575
Fe            0.350001     -0.417714     -0.024864
Fe           -0.137270     -0.410159     -0.227847
Fe           -0.360305      0.424762      0.021362
H            -0.101148      0.415889      0.058375
H            -0.412579     -0.429087     -0.204039
H             0.084573     -0.422900     -0.044114
H             0.425351      0.410558      0.208419
O            -0.203807      0.421066     -0.108303
O            -0.310091     -0.408299      0.156169
O             0.197822     -0.443498      0.093624
O             0.319679      0.417887     -0.159645
O            -0.067665      0.416563      0.156670
O            -0.454524     -0.419834     -0.108259
O             0.056282     -0.408265     -0.145903
O             0.442433      0.402143      0.105976
Fe            0.148320     -0.249649     -0.281366
Fe            0.350758     -0.130908      0.472952
Fe           -0.138623     -0.088928      0.270014
Fe           -0.342361     -0.249463     -0.482340
H            -0.083267     -0.245744     -0.457127
H            -0.354953     -0.068132      0.245295
H             0.081276     -0.065892      0.447718
H             0.450506     -0.238376     -0.286746
O            -0.171046     -0.237431      0.421802
O            -0.308086     -0.075754     -0.347775
O             0.194370     -0.080885     -0.416895
O             0.306920     -0.289062      0.341498
O            -0.054172     -0.233507     -0.354523
O            -0.463048     -0.054488      0.408007
O             0.060675     -0.078712      0.344887
O             0.463114     -0.265416     -0.385966
Fe            0.136122      0.075821     -0.275599
H             0.432893      0.247709     -0.387065
Fe           -0.137372      0.254380      0.292241
Fe           -0.363362      0.097032     -0.470676
H            -0.084030      0.073220     -0.464405
H            -0.400229      0.278531      0.300302
H             0.131766      0.262242      0.497020
H             0.414834      0.085657     -0.291702
O            -0.195441      0.081657      0.398444
O            -0.293195      0.260713     -0.369538
O             0.188062      0.252289     -0.415799
O             0.294493      0.067374      0.340164
O            -0.056062      0.075677     -0.362637
O            -0.441236      0.267343      0.395880
O             0.058364      0.236157      0.344394
O             0.446623      0.132906     -0.379722
Fe            0.152380      0.420615     -0.262371
Cu            0.364822     -0.435021      0.484687
Fe           -0.141010     -0.414480      0.275021
Fe           -0.345992      0.426327     -0.490119
H            -0.068842      0.428615     -0.445402
H            -0.393621     -0.416426      0.288735
H             0.072755     -0.423879      0.454369
H             0.491138      0.441732     -0.302385
O            -0.194528      0.425843      0.411255
O            -0.296023     -0.424233     -0.347980
O             0.195692     -0.426034     -0.402658
O             0.310304      0.415531      0.355538
O            -0.053882      0.418620     -0.344057
O            -0.426417     -0.418126      0.393665
O             0.049787     -0.420212      0.351330
O             0.485027      0.408051     -0.400634
H            -0.492820     -0.011657      0.318919
H             0.291102      0.129028      0.424238
H             0.301542      0.334674      0.423173
data_nwchem_pspw

_audit_creation_date   Mon Nov 13 19:08:30 2023
_audit_creation_method    generated by PSPW module of NWChem


_cell_length_a            10.0667
_cell_length_b             9.1552
_cell_length_c             9.2041
_cell_angle_alpha         90.0000
_cell_angle_beta          90.0000
_cell_angle_gamma         90.0000

_symmetry_space_group_name_H-M     P1  

loop_
_atom_site_type_symbol
_atom_site_fract_x
_atom_site_fract_y
_atom_site_fract_z
Fe            0.146735     -0.250000      0.224756
Fe            0.353175     -0.083327     -0.025375
Fe           -0.146825     -0.083327     -0.224625
Fe           -0.353265     -0.250000      0.025244
H            -0.085221     -0.250000      0.049134
H            -0.414737     -0.083030     -0.201101
H             0.085263     -0.083030     -0.048899
H             0.414779     -0.250000      0.200866
O            -0.196748     -0.250000     -0.095276
O            -0.303195     -0.083277      0.154599
O             0.196805     -0.083277      0.095401
O             0.303252     -0.250000     -0.154724
O            -0.053396     -0.250000      0.148894
O            -0.446594     -0.082953     -0.101355
O             0.053406     -0.082954     -0.148645
O             0.446604     -0.250000      0.101106
Fe            0.146825      0.083327      0.224625
Fe            0.353265      0.250000     -0.025244
Fe           -0.146735      0.250000     -0.224756
Fe           -0.353175      0.083327      0.025375
H            -0.085263      0.083030      0.048899
H            -0.414779      0.250000     -0.200866
H             0.085221      0.250000     -0.049134
H             0.414737      0.083030      0.201101
O            -0.196805      0.083277     -0.095401
O            -0.303252      0.250000      0.154724
O             0.196748      0.250000      0.095276
O             0.303195      0.083277     -0.154599
O            -0.053406      0.082954      0.148645
O            -0.446604      0.250000     -0.101106
O             0.053396      0.250000     -0.148894
O             0.446594      0.082953      0.101355
Fe            0.146825      0.416673      0.224625
Fe            0.353175     -0.416673     -0.025375
Fe           -0.146825     -0.416673     -0.224625
Fe           -0.353175      0.416673      0.025375
H            -0.085263      0.416970      0.048899
H            -0.414737     -0.416970     -0.201101
H             0.085263     -0.416970     -0.048899
H             0.414737      0.416970      0.201101
O            -0.196805      0.416723     -0.095401
O            -0.303195     -0.416723      0.154599
O             0.196805     -0.416723      0.095401
O             0.303195      0.416723     -0.154599
O            -0.053406      0.417047      0.148645
O            -0.446594     -0.417047     -0.101355
O             0.053406     -0.417047     -0.148645
O             0.446594      0.417046      0.101355
Fe            0.146735     -0.250000     -0.275244
Fe            0.353175     -0.083327      0.474625
Fe           -0.146825     -0.083327      0.275375
Fe           -0.353265     -0.250000     -0.474756
H            -0.085221     -0.250000     -0.450866
H            -0.414737     -0.083030      0.298899
H             0.085263     -0.083030      0.451101
H             0.414779     -0.250000     -0.299134
O            -0.196748     -0.250000      0.404724
O            -0.303195     -0.083277     -0.345401
O             0.196805     -0.083277     -0.404599
O             0.303252     -0.250000      0.345276
O            -0.053396     -0.250000     -0.351106
O            -0.446594     -0.082953      0.398645
O             0.053406     -0.082954      0.351355
O             0.446604     -0.250000     -0.398894
Fe            0.146825      0.083327     -0.275375
H             0.353265      0.250000      0.474756
Fe           -0.146735      0.250000      0.275244
Fe           -0.353175      0.083327     -0.474625
H            -0.085263      0.083030     -0.451101
H            -0.414779      0.250000      0.299134
H             0.085221      0.250000      0.450866
H             0.414737      0.083030     -0.298899
O            -0.196805      0.083277      0.404599
O            -0.303252      0.250000     -0.345276
O             0.196748      0.250000     -0.404724
O             0.303195      0.083277      0.345401
O            -0.053406      0.082954     -0.351355
O            -0.446604      0.250000      0.398894
O             0.053396      0.250000      0.351106
O             0.446594      0.082953     -0.398645
Fe            0.146825      0.416673     -0.275375
Cu            0.353175     -0.416673      0.474625
Fe           -0.146825     -0.416673      0.275375
Fe           -0.353175      0.416673     -0.474625
H            -0.085263      0.416970     -0.451101
H            -0.414737     -0.416970      0.298899
H             0.085263     -0.416970      0.451101
H             0.414737      0.416970     -0.298899
O            -0.196805      0.416723      0.404599
O            -0.303195     -0.416723     -0.345401
O             0.196805     -0.416723     -0.404599
O             0.303195      0.416723      0.345401
O            -0.053406      0.417047     -0.351355
O            -0.446594     -0.417047      0.398645
O             0.053406     -0.417047      0.351355
O             0.446594      0.417046     -0.398645
H             0.451134     -0.207847      0.346694
H             0.253265      0.250000      0.404756
H             0.353265      0.350000      0.474756
data_nwchem_pspw

_audit_creation_date   Mon Nov 13 19:35:39 2023
_audit_creation_method    generated by PSPW module of NWChem


_cell_length_a            10.0667
_cell_length_b             9.1552
_cell_length_c             9.2041
_cell_angle_alpha         90.0000
_cell_angle_beta          90.0000
_cell_angle_gamma         90.0000

_symmetry_space_group_name_H-M     P1  

loop_
_atom_site_type_symbol
_atom_site_fract_x
_atom_site_fract_y
_atom_site_fract_z
Fe            0.146735     -0.250000      0.224756
Fe            0.353175     -0.083327     -0.025375
Fe           -0.146825     -0.083327     -0.224625
Fe           -0.353265     -0.250000      0.025244
H            -0.085221     -0.250000      0.049134
H            -0.414737     -0.083030     -0.201101
H             0.085263     -0.083030     -0.048899
H             0.414779     -0.250000      0.200866
O            -0.196748     -0.250000     -0.095276
O            -0.303195     -0.083277      0.154599
O             0.196805     -0.083277      0.095401
O             0.303252     -0.250000     -0.154724
O            -0.053396     -0.250000      0.148894
O            -0.446594     -0.082953     -0.101355
O             0.053406     -0.082954     -0.148645
O             0.446604     -0.250000      0.101106
Fe            0.146825      0.083327      0.224625
Fe            0.353265      0.250000     -0.025244
Fe           -0.146735      0.250000     -0.224756
Fe           -0.353175      0.083327      0.025375
H            -0.085263      0.083030      0.048899
H            -0.414779      0.250000     -0.200866
H             0.085221      0.250000     -0.049134
H             0.414737      0.083030      0.201101
O            -0.196805      0.083277     -0.095401
O            -0.303252      0.250000      0.154724
O             0.196748      0.250000      0.095276
O             0.303195      0.083277     -0.154599
O            -0.053406      0.082954      0.148645
O            -0.446604      0.250000     -0.101106
O             0.053396      0.250000     -0.148894
O             0.446594      0.082953      0.101355
Fe            0.146825      0.416673      0.224625
Fe            0.353175     -0.416673     -0.025375
Fe           -0.146825     -0.416673     -0.224625
Fe           -0.353175      0.416673      0.025375
H            -0.085263      0.416970      0.048899
H            -0.414737     -0.416970     -0.201101
H             0.085263     -0.416970     -0.048899
H             0.414737      0.416970      0.201101
O            -0.196805      0.416723     -0.095401
O            -0.303195     -0.416723      0.154599
O             0.196805     -0.416723      0.095401
O             0.303195      0.416723     -0.154599
O            -0.053406      0.417047      0.148645
O            -0.446594     -0.417047     -0.101355
O             0.053406     -0.417047     -0.148645
O             0.446594      0.417046      0.101355
Fe            0.146735     -0.250000     -0.275244
Fe            0.353175     -0.083327      0.474625
Fe           -0.146825     -0.083327      0.275375
Fe           -0.353265     -0.250000     -0.474756
H            -0.085221     -0.250000     -0.450866
H            -0.414737     -0.083030      0.298899
H             0.085263     -0.083030      0.451101
H             0.414779     -0.250000     -0.299134
O            -0.196748     -0.250000      0.404724
O            -0.303195     -0.083277     -0.345401
O             0.196805     -0.083277     -0.404599
O             0.303252     -0.250000      0.345276
O            -0.053396     -0.250000     -0.351106
O            -0.446594     -0.082953      0.398645
O             0.053406     -0.082954      0.351355
O             0.446604     -0.250000     -0.398894
Fe            0.146825      0.083327     -0.275375
H             0.353265      0.250000      0.474756
Fe           -0.146735      0.250000      0.275244
Fe           -0.353175      0.083327     -0.474625
H            -0.085263      0.083030     -0.451101
H            -0.414779      0.250000      0.299134
H             0.085221      0.250000      0.450866
H             0.414737      0.083030     -0.298899
O            -0.196805      0.083277      0.404599
O            -0.303252      0.250000     -0.345276
O             0.196748      0.250000     -0.404724
O             0.303195      0.083277      0.345401
O            -0.053406      0.082954     -0.351355
O            -0.446604      0.250000      0.398894
O             0.053396      0.250000      0.351106
O             0.446594      0.082953     -0.398645
Fe            0.146825      0.416673     -0.275375
Cu            0.353175     -0.416673      0.474625
Fe           -0.146825     -0.416673      0.275375
Fe           -0.353175      0.416673     -0.474625
H            -0.085263      0.416970     -0.451101
H            -0.414737     -0.416970      0.298899
H             0.085263     -0.416970      0.451101
H             0.414737      0.416970     -0.298899
O            -0.196805      0.416723      0.404599
O            -0.303195     -0.416723     -0.345401
O             0.196805     -0.416723     -0.404599
O             0.303195      0.416723      0.345401
O            -0.053406      0.417047     -0.351355
O            -0.446594     -0.417047      0.398645
O             0.053406     -0.417047      0.351355
O             0.446594      0.417046     -0.398645
H             0.451134     -0.207847      0.346694
H             0.253265      0.250000      0.404756
H             0.353265      0.350000      0.474756
data_nwchem_pspw

_audit_creation_date   Mon Nov 13 20:09:59 2023
_audit_creation_method    generated by PSPW module of NWChem


_cell_length_a            10.0667
_cell_length_b             9.1552
_cell_length_c             9.2041
_cell_angle_alpha         90.0000
_cell_angle_beta          90.0000
_cell_angle_gamma         90.0000

_symmetry_space_group_name_H-M     P1  

loop_
_atom_site_type_symbol
_atom_site_fract_x
_atom_site_fract_y
_atom_site_fract_z
Fe            0.146735     -0.250000      0.224756
Fe            0.353175     -0.083327     -0.025375
Fe           -0.146825     -0.083327     -0.224625
Fe           -0.353265     -0.250000      0.025244
H            -0.085221     -0.250000      0.049134
H            -0.414737     -0.083030     -0.201101
H             0.085263     -0.083030     -0.048899
H             0.414779     -0.250000      0.200866
O            -0.196748     -0.250000     -0.095276
O            -0.303195     -0.083277      0.154599
O             0.196805     -0.083277      0.095401
O             0.303252     -0.250000     -0.154724
O            -0.053396     -0.250000      0.148894
O            -0.446594     -0.082953     -0.101355
O             0.053406     -0.082954     -0.148645
O             0.446604     -0.250000      0.101106
Fe            0.146825      0.083327      0.224625
Fe            0.353265      0.250000     -0.025244
Fe           -0.146735      0.250000     -0.224756
Fe           -0.353175      0.083327      0.025375
H            -0.085263      0.083030      0.048899
H            -0.414779      0.250000     -0.200866
H             0.085221      0.250000     -0.049134
H             0.414737      0.083030      0.201101
O            -0.196805      0.083277     -0.095401
O            -0.303252      0.250000      0.154724
O             0.196748      0.250000      0.095276
O             0.303195      0.083277     -0.154599
O            -0.053406      0.082954      0.148645
O            -0.446604      0.250000     -0.101106
O             0.053396      0.250000     -0.148894
O             0.446594      0.082953      0.101355
Fe            0.146825      0.416673      0.224625
Fe            0.353175     -0.416673     -0.025375
Fe           -0.146825     -0.416673     -0.224625
Fe           -0.353175      0.416673      0.025375
H            -0.085263      0.416970      0.048899
H            -0.414737     -0.416970     -0.201101
H             0.085263     -0.416970     -0.048899
H             0.414737      0.416970      0.201101
O            -0.196805      0.416723     -0.095401
O            -0.303195     -0.416723      0.154599
O             0.196805     -0.416723      0.095401
O             0.303195      0.416723     -0.154599
O            -0.053406      0.417047      0.148645
O            -0.446594     -0.417047     -0.101355
O             0.053406     -0.417047     -0.148645
O             0.446594      0.417046      0.101355
Fe            0.146735     -0.250000     -0.275244
Fe            0.353175     -0.083327      0.474625
Fe           -0.146825     -0.083327      0.275375
Fe           -0.353265     -0.250000     -0.474756
H            -0.085221     -0.250000     -0.450866
H            -0.414737     -0.083030      0.298899
H             0.085263     -0.083030      0.451101
H             0.414779     -0.250000     -0.299134
O            -0.196748     -0.250000      0.404724
O            -0.303195     -0.083277     -0.345401
O             0.196805     -0.083277     -0.404599
O             0.303252     -0.250000      0.345276
O            -0.053396     -0.250000     -0.351106
O            -0.446594     -0.082953      0.398645
O             0.053406     -0.082954      0.351355
O             0.446604     -0.250000     -0.398894
Fe            0.146825      0.083327     -0.275375
H             0.353265      0.250000      0.474756
Fe           -0.146735      0.250000      0.275244
Fe           -0.353175      0.083327     -0.474625
H            -0.085263      0.083030     -0.451101
H            -0.414779      0.250000      0.299134
H             0.085221      0.250000      0.450866
H             0.414737      0.083030     -0.298899
O            -0.196805      0.083277      0.404599
O            -0.303252      0.250000     -0.345276
O             0.196748      0.250000     -0.404724
O             0.303195      0.083277      0.345401
O            -0.053406      0.082954     -0.351355
O            -0.446604      0.250000      0.398894
O             0.053396      0.250000      0.351106
O             0.446594      0.082953     -0.398645
Fe            0.146825      0.416673     -0.275375
Cu            0.353175     -0.416673      0.474625
Fe           -0.146825     -0.416673      0.275375
Fe           -0.353175      0.416673     -0.474625
H            -0.085263      0.416970     -0.451101
H            -0.414737     -0.416970      0.298899
H             0.085263     -0.416970      0.451101
H             0.414737      0.416970     -0.298899
O            -0.196805      0.416723      0.404599
O            -0.303195     -0.416723     -0.345401
O             0.196805     -0.416723     -0.404599
O             0.303195      0.416723      0.345401
O            -0.053406      0.417047     -0.351355
O            -0.446594     -0.417047      0.398645
O             0.053406     -0.417047      0.351355
O             0.446594      0.417046     -0.398645
H             0.451134     -0.207847      0.346694
H             0.253265      0.250000      0.404756
H             0.353265      0.350000      0.474756
data_nwchem_pspw

_audit_creation_date   Mon Nov 13 22:04:22 2023
_audit_creation_method    generated by PSPW module of NWChem


_cell_length_a            10.0667
_cell_length_b             9.1552
_cell_length_c             9.2041
_cell_angle_alpha         90.0000
_cell_angle_beta          90.0000
_cell_angle_gamma         90.0000

_symmetry_space_group_name_H-M     P1  

loop_
_atom_site_type_symbol
_atom_site_fract_x
_atom_site_fract_y
_atom_site_fract_z
Fe            0.153820     -0.247398      0.234930
Fe            0.353231     -0.083538     -0.022707
Fe           -0.139944     -0.080910     -0.235936
Fe           -0.363602     -0.243776      0.016754
H            -0.091150     -0.228099      0.069071
H            -0.410492     -0.099844     -0.216694
H             0.079659     -0.068692     -0.060824
H             0.429499     -0.260206      0.203248
O            -0.197112     -0.247160     -0.101222
O            -0.292840     -0.082452      0.151434
O             0.193636     -0.078207      0.094260
O             0.298147     -0.262616     -0.136908
O            -0.049993     -0.248866      0.161335
O            -0.443540     -0.084535     -0.117721
O             0.058460     -0.080848     -0.163036
O             0.455614     -0.255950      0.103841
Fe            0.135560      0.092418      0.217003
Fe            0.353721      0.230132     -0.004527
Fe           -0.153165      0.245866     -0.220971
Fe           -0.352700      0.075597      0.011766
H            -0.092311      0.079297      0.045411
H            -0.466947      0.250535     -0.214938
H             0.073970      0.241174     -0.044705
H             0.453913      0.066800      0.203080
O            -0.185914      0.086535     -0.091962
O            -0.308872      0.251943      0.154522
O             0.188668      0.233891      0.090546
O             0.289651      0.087598     -0.149739
O            -0.058299      0.075101      0.147615
O            -0.453310      0.250401     -0.111030
O             0.045733      0.249997     -0.144323
O             0.461163      0.058556      0.101842
Fe            0.132909      0.410138      0.218192
Fe            0.345433     -0.423459     -0.001611
Fe           -0.141870     -0.410897     -0.216405
Fe           -0.356353      0.407402      0.028201
H            -0.093216      0.429316      0.053533
H            -0.419116     -0.449488     -0.192592
H             0.082944     -0.406077     -0.039878
H             0.432844      0.404154      0.221017
O            -0.208227      0.409847     -0.092679
O            -0.298010     -0.416762      0.144979
O             0.199434     -0.414469      0.107406
O             0.300841      0.424461     -0.153686
O            -0.061720      0.422653      0.152772
O            -0.455923     -0.434449     -0.096550
O             0.044001     -0.411331     -0.135655
O             0.445020      0.401808      0.118373
Fe            0.150094     -0.248835     -0.274477
Fe            0.358040     -0.089038      0.470390
Fe           -0.127010     -0.089110      0.305494
Fe           -0.339331     -0.257762     -0.457292
H            -0.078452     -0.272894     -0.452969
H            -0.355690     -0.072197      0.235473
H             0.100367     -0.039501      0.445637
H             0.408621     -0.247137     -0.314959
O            -0.204613     -0.240255      0.401094
O            -0.292013     -0.089292     -0.361821
O             0.209633     -0.075789     -0.402429
O             0.310663     -0.250409      0.338406
O            -0.050286     -0.254106     -0.355357
O            -0.451351     -0.098053      0.363721
O             0.069381     -0.060020      0.350858
O             0.458672     -0.245008     -0.403557
Fe            0.138755      0.101730     -0.287906
H             0.453632      0.319795     -0.425427
Fe           -0.151852      0.248652      0.274139
Fe           -0.365013      0.095826     -0.479033
H            -0.095982      0.092177     -0.456303
H            -0.419070      0.275183      0.288248
H             0.109821      0.253037      0.441474
H             0.422407      0.087520     -0.315034
O            -0.195537      0.097613      0.416718
O            -0.298671      0.257942     -0.352915
O             0.198234      0.261408     -0.406101
O             0.292821      0.089813      0.329162
O            -0.068654      0.088276     -0.352828
O            -0.435586      0.266651      0.392743
O             0.058796      0.253033      0.346195
O             0.448260      0.085785     -0.415627
Fe            0.135983      0.423860     -0.292292
Cu            0.361766     -0.415630      0.470775
Fe           -0.143972     -0.410851      0.275587
Fe           -0.352142      0.413802     -0.484933
H            -0.106552      0.413696     -0.448352
H            -0.397122     -0.426173      0.298790
H             0.088407     -0.413099      0.445034
H             0.379025      0.424882     -0.221707
O            -0.206711      0.412622      0.397688
O            -0.298876     -0.431963     -0.357238
O             0.195264     -0.404815     -0.402711
O             0.288992      0.412574      0.371430
O            -0.063286      0.412618     -0.354892
O            -0.434053     -0.411777      0.397997
O             0.046778     -0.410064      0.350118
O             0.476360      0.408258     -0.387598
H            -0.465281     -0.177521      0.304705
H             0.323456      0.194838      0.350360
H             0.269347      0.347129      0.457426
data_nwchem_pspw

_audit_creation_date   Tue Nov 14 00:06:47 2023
_audit_creation_method    generated by PSPW module of NWChem


_cell_length_a            10.0667
_cell_length_b             9.1552
_cell_length_c             9.2041
_cell_angle_alpha         90.0000
_cell_angle_beta          90.0000
_cell_angle_gamma         90.0000

_symmetry_space_group_name_H-M     P1  

loop_
_atom_site_type_symbol
_atom_site_fract_x
_atom_site_fract_y
_atom_site_fract_z
Fe            0.157562     -0.245200      0.238431
Fe            0.344688     -0.082254     -0.051676
Fe           -0.137862     -0.101837     -0.235279
Fe           -0.354442     -0.247269      0.005594
H            -0.049241     -0.204291      0.044570
H            -0.405367     -0.071963     -0.197661
H             0.076331     -0.075574     -0.054889
H             0.408203     -0.263992      0.203750
O            -0.192791     -0.258998     -0.093954
O            -0.289304     -0.056572      0.148890
O             0.191246     -0.071154      0.090083
O             0.295404     -0.248834     -0.165361
O            -0.045533     -0.242260      0.141551
O            -0.448089     -0.077457     -0.100387
O             0.055699     -0.081522     -0.156962
O             0.449714     -0.250017      0.104327
Fe            0.135983      0.076198      0.222759
Fe            0.344410      0.251466     -0.006505
Fe           -0.147295      0.242573     -0.205828
Fe           -0.361998      0.110689     -0.001367
H            -0.090752      0.077535      0.054085
H            -0.461972      0.287181     -0.213154
H             0.072542      0.261282     -0.031261
H             0.418078      0.083572      0.193622
O            -0.191998      0.073141     -0.092290
O            -0.294699      0.252302      0.145660
O             0.199432      0.255757      0.124672
O             0.301197      0.091994     -0.160256
O            -0.049270      0.080708      0.150743
O            -0.466638      0.272635     -0.109928
O             0.043440      0.269624     -0.130642
O             0.446815      0.079343      0.089207
Fe            0.146746      0.425707      0.238612
Fe            0.349704     -0.404326     -0.014304
Fe           -0.146519     -0.430733     -0.221631
Fe           -0.356105      0.426076      0.026365
H            -0.105274      0.412695      0.061137
H            -0.415768     -0.431887     -0.190463
H             0.070368     -0.398697     -0.049521
H             0.412934      0.415989      0.194540
O            -0.202897      0.414552     -0.083925
O            -0.302616     -0.392566      0.155436
O             0.200324     -0.417806      0.107562
O             0.288365      0.421737     -0.162292
O            -0.060400      0.415670      0.155305
O            -0.453733     -0.407228     -0.096433
O             0.045608     -0.396678     -0.150884
O             0.442825      0.411448      0.094803
Fe            0.141690     -0.247931     -0.295100
Fe            0.361377     -0.095259      0.476319
Fe           -0.131602     -0.094176      0.289719
Fe           -0.346091     -0.260362     -0.454185
H            -0.106085     -0.268639     -0.458756
H            -0.355072     -0.027217      0.223759
H             0.113058     -0.080407      0.448480
H             0.395131     -0.249854     -0.288747
O            -0.187271     -0.261690      0.416446
O            -0.311420     -0.079087     -0.333890
O             0.192216     -0.082299     -0.417988
O             0.330679     -0.253030      0.337915
O            -0.052317     -0.246209     -0.364965
O            -0.436993     -0.107505      0.401845
O             0.066890     -0.079857      0.349529
O             0.444433     -0.266845     -0.378013
Fe            0.140746      0.092206     -0.293222
H             0.449756      0.324620     -0.419694
Fe           -0.154374      0.243307      0.290303
Fe           -0.358808      0.082466     -0.472238
H            -0.084516      0.088246     -0.457294
H            -0.406550      0.285355      0.308991
H             0.083612      0.214948      0.440547
H             0.400040      0.085830     -0.321738
O            -0.192590      0.065058      0.412596
O            -0.301389      0.252918     -0.352604
O             0.199811      0.242544     -0.400373
O             0.309438      0.070769      0.318114
O            -0.052788      0.098168     -0.355360
O            -0.441404      0.252906      0.400628
O             0.055569      0.238934      0.342498
O             0.441244      0.055868     -0.412524
Fe            0.121427      0.420497     -0.285816
Cu            0.377308     -0.422063      0.489395
Fe           -0.144769     -0.407940      0.255897
Fe           -0.356490      0.419199     -0.481761
H            -0.089373      0.401777     -0.457161
H            -0.392307     -0.408925      0.306335
H             0.110985     -0.407657      0.452519
H             0.356222      0.384508     -0.218461
O            -0.209038      0.409548      0.401587
O            -0.306100     -0.428762     -0.342077
O             0.179603     -0.430701     -0.408595
O             0.308993      0.410872      0.380858
O            -0.066465      0.405551     -0.353930
O            -0.429058     -0.429191      0.404046
O             0.067812     -0.408327      0.354279
O             0.472635      0.413215     -0.374288
H            -0.440708     -0.146730      0.306008
H             0.339038      0.151053      0.373574
H             0.266474      0.347953      0.451912
data_nwchem_pspw

_audit_creation_date   Tue Nov 14 01:57:39 2023
_audit_creation_method    generated by PSPW module of NWChem


_cell_length_a            10.0667
_cell_length_b             9.1552
_cell_length_c             9.2041
_cell_angle_alpha         90.0000
_cell_angle_beta          90.0000
_cell_angle_gamma         90.0000

_symmetry_space_group_name_H-M     P1  

loop_
_atom_site_type_symbol
_atom_site_fract_x
_atom_site_fract_y
_atom_site_fract_z
Fe            0.165029     -0.246228      0.230525
Fe            0.354567     -0.087762     -0.023144
Fe           -0.162583     -0.094718     -0.234234
Fe           -0.347268     -0.250575      0.010993
H            -0.075580     -0.252600      0.062307
H            -0.409568     -0.062692     -0.196913
H             0.082631     -0.103117     -0.048079
H             0.436928     -0.227382      0.198656
O            -0.200285     -0.254329     -0.102615
O            -0.281698     -0.096454      0.159592
O             0.195798     -0.082298      0.096619
O             0.303971     -0.242752     -0.158582
O            -0.034857     -0.248377      0.158040
O            -0.434975     -0.071003     -0.095758
O             0.044349     -0.093050     -0.146229
O             0.458494     -0.242821      0.095531
Fe            0.128947      0.077527      0.232252
Fe            0.353809      0.240018     -0.001807
Fe           -0.158295      0.247599     -0.233379
Fe           -0.348606      0.082912      0.022756
H            -0.061437      0.064067      0.041338
H            -0.423008      0.256847     -0.198266
H             0.068791      0.245529     -0.055595
H             0.412009      0.112952      0.220546
O            -0.192800      0.071279     -0.102775
O            -0.299798      0.250021      0.157720
O             0.192329      0.228160      0.112701
O             0.299495      0.078081     -0.142920
O            -0.049670      0.076208      0.145066
O            -0.445933      0.255155     -0.095676
O             0.044095      0.250349     -0.156140
O             0.460680      0.083075      0.134296
Fe            0.144130      0.413613      0.216966
Fe            0.365057     -0.410140     -0.023824
Fe           -0.151195     -0.418482     -0.238205
Fe           -0.352136      0.412662      0.022836
H            -0.085797      0.414836      0.039879
H            -0.426701     -0.461412     -0.221193
H             0.071353     -0.403846     -0.037648
H             0.421507      0.401090      0.213300
O            -0.203848      0.422714     -0.105021
O            -0.283593     -0.402327      0.131520
O             0.205108     -0.425920      0.085922
O             0.311201      0.406585     -0.157682
O            -0.046744      0.408292      0.136328
O            -0.457769     -0.440521     -0.123031
O             0.054940     -0.403579     -0.140623
O             0.444294      0.409535      0.112310
Fe            0.140224     -0.236543     -0.274631
Fe            0.355115     -0.089369      0.486359
Fe           -0.119921     -0.072282      0.293234
Fe           -0.370865     -0.254518     -0.480028
H            -0.102613     -0.275699     -0.460910
H            -0.356840     -0.120273      0.211317
H             0.099268     -0.080914      0.469169
H             0.405600     -0.244338     -0.295788
O            -0.212400     -0.263775      0.397292
O            -0.316635     -0.099902     -0.353494
O             0.188693     -0.077822     -0.399474
O             0.312478     -0.239202      0.352127
O            -0.062150     -0.268766     -0.364452
O            -0.450594     -0.064618      0.390480
O             0.068064     -0.097727      0.364122
O             0.443173     -0.251632     -0.394533
Fe            0.153980      0.094622     -0.279090
H             0.426139      0.311840     -0.419146
Fe           -0.153467      0.246988      0.280408
Fe           -0.358681      0.088284     -0.472097
H            -0.088516      0.088338     -0.450369
H            -0.400052      0.275991      0.300659
H             0.082633      0.243676      0.456584
H             0.435914      0.068112     -0.290501
O            -0.199815      0.084156      0.407687
O            -0.313193      0.263258     -0.354926
O             0.187915      0.264534     -0.403208
O             0.283071      0.074527      0.363009
O            -0.051942      0.072982     -0.354997
O            -0.440818      0.272646      0.395333
O             0.038801      0.242980      0.360206
O             0.456170      0.074928     -0.392640
Fe            0.139158      0.426499     -0.277092
Cu            0.361371     -0.410763      0.475546
Fe           -0.132726     -0.405457      0.266230
Fe           -0.363422      0.418310     -0.486154
H            -0.087043      0.418559     -0.448146
H            -0.389493     -0.393186      0.290701
H             0.085064     -0.399360      0.459052
H             0.375405      0.380095     -0.235897
O            -0.205204      0.430187      0.399566
O            -0.324698     -0.432860     -0.353377
O             0.192828     -0.392591     -0.397905
O             0.292323      0.415112      0.375949
O            -0.064068      0.408629     -0.345482
O            -0.436830     -0.431010      0.373824
O             0.059739     -0.419316      0.357719
O             0.463772      0.403464     -0.393768
H            -0.480402     -0.016367      0.304170
H             0.305268      0.163849      0.408008
H             0.255336      0.362209      0.462153
data_nwchem_pspw

_audit_creation_date   Tue Nov 14 03:52:39 2023
_audit_creation_method    generated by PSPW module of NWChem


_cell_length_a            10.0667
_cell_length_b             9.1552
_cell_length_c             9.2041
_cell_angle_alpha         90.0000
_cell_angle_beta          90.0000
_cell_angle_gamma         90.0000

_symmetry_space_group_name_H-M     P1  

loop_
_atom_site_type_symbol
_atom_site_fract_x
_atom_site_fract_y
_atom_site_fract_z
Fe            0.151395     -0.250278      0.224341
Fe            0.344194     -0.083356     -0.017929
Fe           -0.148953     -0.086638     -0.217819
Fe           -0.353652     -0.255591      0.025678
H            -0.082087     -0.244656      0.049880
H            -0.432543     -0.070158     -0.204055
H             0.086643     -0.074926     -0.044889
H             0.386438     -0.246241      0.198485
O            -0.187760     -0.248167     -0.093230
O            -0.308987     -0.073410      0.143507
O             0.195227     -0.071215      0.111513
O             0.313017     -0.250966     -0.145602
O            -0.057413     -0.241364      0.152314
O            -0.451344     -0.083712     -0.101543
O             0.062275     -0.077016     -0.146282
O             0.435344     -0.251444      0.109091
Fe            0.127900      0.091173      0.235201
Fe            0.359323      0.236617     -0.025462
Fe           -0.153575      0.239452     -0.242992
Fe           -0.364430      0.086244      0.013110
H            -0.076984      0.082071      0.049750
H            -0.415536      0.245754     -0.202631
H             0.089198      0.254973     -0.052973
H             0.427566      0.099989      0.208617
O            -0.194944      0.084973     -0.090994
O            -0.315528      0.263371      0.148201
O             0.199132      0.235848      0.098294
O             0.323124      0.071989     -0.154438
O            -0.040616      0.105487      0.145405
O            -0.452275      0.250341     -0.105361
O             0.062989      0.261447     -0.154595
O             0.456313      0.070990      0.113710
Fe            0.144727      0.400557      0.227167
Fe            0.355269     -0.420164     -0.024232
Fe           -0.135919     -0.425737     -0.214483
Fe           -0.347092      0.414740     -0.002585
H            -0.080112      0.403144      0.049208
H            -0.417087     -0.422823     -0.211746
H             0.111931     -0.426268     -0.043638
H             0.446250      0.447857      0.194330
O            -0.180533      0.402512     -0.093258
O            -0.296301     -0.416539      0.148608
O             0.196478     -0.416771      0.110155
O             0.318635      0.421726     -0.158422
O            -0.046162      0.421879      0.148257
O            -0.434618     -0.422087     -0.110454
O             0.068604     -0.414642     -0.138845
O             0.452725      0.421105      0.094476
Fe            0.151718     -0.247274     -0.272989
Fe            0.352080     -0.088055      0.477464
Fe           -0.149477     -0.076831      0.282936
Fe           -0.348292     -0.255938     -0.465045
H            -0.077122     -0.261273     -0.447115
H            -0.373436     -0.085287      0.216387
H             0.086804     -0.055751      0.451967
H             0.415075     -0.260820     -0.294566
O            -0.200273     -0.242443      0.406909
O            -0.308563     -0.085551     -0.352314
O             0.201170     -0.077798     -0.393223
O             0.298373     -0.248997      0.354814
O            -0.053529     -0.258300     -0.345622
O            -0.466096     -0.091872      0.370228
O             0.051143     -0.062723      0.352006
O             0.460081     -0.262748     -0.389239
Fe            0.165673      0.094889     -0.265801
H             0.441585      0.321507     -0.409973
Fe           -0.157330      0.259659      0.267203
Fe           -0.365382      0.099339     -0.483599
H            -0.114627      0.061296     -0.437438
H            -0.398595      0.276389      0.292853
H             0.088522      0.250951      0.446885
H             0.416910      0.056381     -0.306708
O            -0.212562      0.092741      0.392704
O            -0.307913      0.261844     -0.359224
O             0.199187      0.239072     -0.416226
O             0.286197      0.086498      0.358367
O            -0.060175      0.073271     -0.347755
O            -0.434899      0.271978      0.396561
O             0.039372      0.246459      0.356959
O             0.445053      0.069522     -0.407095
Fe            0.143289      0.406173     -0.296294
Cu            0.354092     -0.420241      0.491800
Fe           -0.148380     -0.407097      0.269980
Fe           -0.361643      0.421760     -0.474829
H            -0.106017      0.402794     -0.452505
H            -0.390599     -0.449049      0.313822
H             0.086887     -0.385221      0.443488
H             0.380855      0.423620     -0.243060
O            -0.203889      0.415576      0.400854
O            -0.284731     -0.427273     -0.351729
O             0.189755     -0.404026     -0.389803
O             0.295158      0.421228      0.360211
O            -0.057290      0.408877     -0.358820
O            -0.440867     -0.430292      0.397796
O             0.056020     -0.395198      0.349310
O             0.472449      0.412249     -0.372009
H            -0.495563     -0.162373      0.301236
H             0.273280      0.141119      0.451330
H             0.358515      0.344498      0.374106
data_nwchem_pspw

_audit_creation_date   Tue Nov 14 05:55:09 2023
_audit_creation_method    generated by PSPW module of NWChem


_cell_length_a            10.0667
_cell_length_b             9.1552
_cell_length_c             9.2041
_cell_angle_alpha         90.0000
_cell_angle_beta          90.0000
_cell_angle_gamma         90.0000

_symmetry_space_group_name_H-M     P1  

loop_
_atom_site_type_symbol
_atom_site_fract_x
_atom_site_fract_y
_atom_site_fract_z
Fe            0.142587     -0.247564      0.231165
Fe            0.352745     -0.061721     -0.027201
Fe           -0.144780     -0.093138     -0.208889
Fe           -0.358970     -0.263905      0.029101
H            -0.063808     -0.228709      0.049453
H            -0.411422     -0.078798     -0.190263
H             0.091030     -0.052656     -0.037294
H             0.387589     -0.246174      0.205722
O            -0.193162     -0.259164     -0.073206
O            -0.308251     -0.073966      0.152197
O             0.202196     -0.061753      0.110030
O             0.294176     -0.224359     -0.151255
O            -0.055037     -0.245254      0.156386
O            -0.443765     -0.081186     -0.089108
O             0.055104     -0.063816     -0.136466
O             0.441068     -0.251958      0.106694
Fe            0.139766      0.091459      0.230690
Fe            0.350128      0.262411     -0.034494
Fe           -0.146839      0.255998     -0.232344
Fe           -0.370784      0.090859      0.004128
H            -0.083071      0.101721      0.053933
H            -0.422232      0.270603     -0.218842
H             0.079021      0.235323     -0.044676
H             0.422367      0.116770      0.206936
O            -0.207054      0.084494     -0.109449
O            -0.312075      0.239755      0.143803
O             0.202460      0.254826      0.112032
O             0.305786      0.096388     -0.167273
O            -0.050473      0.084432      0.152261
O            -0.447319      0.267093     -0.116670
O             0.046754      0.245026     -0.142081
O             0.447137      0.114021      0.106071
Fe            0.156152      0.418551      0.243658
Fe            0.343381     -0.400941     -0.028899
Fe           -0.138959     -0.422228     -0.213698
Fe           -0.361749      0.417079      0.017755
H            -0.085234      0.421023      0.042056
H            -0.417575     -0.441698     -0.206330
H             0.098705     -0.441925     -0.059897
H             0.416453      0.477877      0.188191
O            -0.206368      0.408659     -0.097315
O            -0.307244     -0.424800      0.171956
O             0.190758     -0.416519      0.096196
O             0.315404      0.422139     -0.176883
O            -0.057932      0.409680      0.141976
O            -0.444261     -0.422899     -0.107329
O             0.054216     -0.421473     -0.149392
O             0.444047      0.425116      0.103098
Fe            0.149586     -0.238647     -0.279918
Fe            0.357202     -0.091283      0.452357
Fe           -0.151226     -0.080922      0.286016
Fe           -0.341379     -0.267165     -0.440107
H            -0.082202     -0.264766     -0.449031
H            -0.365498     -0.039972      0.238150
H             0.103148     -0.079272      0.445153
H             0.424979     -0.250771     -0.292082
O            -0.191094     -0.253083      0.411258
O            -0.294748     -0.090573     -0.347249
O             0.208970     -0.067657     -0.413952
O             0.297665     -0.249433      0.339309
O            -0.041795     -0.253859     -0.352553
O            -0.454745     -0.094379      0.370133
O             0.070865     -0.073263      0.345467
O             0.465228     -0.274083     -0.383520
Fe            0.141007      0.101085     -0.286227
H             0.426696      0.306129     -0.431174
Fe           -0.148966      0.250462      0.280085
Fe           -0.362615      0.073232     -0.476834
H            -0.093604      0.066801     -0.451277
H            -0.398869      0.271039      0.278737
H             0.100105      0.263729      0.454355
H             0.408801      0.048853     -0.327864
O            -0.198625      0.067273      0.412220
O            -0.301920      0.245116     -0.367699
O             0.193353      0.259666     -0.395829
O             0.295356      0.085733      0.335824
O            -0.059413      0.069705     -0.352634
O            -0.431366      0.244072      0.375693
O             0.058195      0.240125      0.357577
O             0.448045      0.066901     -0.422286
Fe            0.136529      0.419414     -0.295439
Cu            0.370351     -0.434509     -0.496810
Fe           -0.142819     -0.412197      0.270463
Fe           -0.357964      0.400617      0.499312
H            -0.106562      0.416447     -0.450279
H            -0.410167     -0.416130      0.301689
H             0.092541     -0.421538      0.462632
H             0.392785      0.413567     -0.240261
O            -0.196006      0.410637      0.409909
O            -0.295588     -0.441240     -0.334859
O             0.190799     -0.404665     -0.413021
O             0.317308      0.400080      0.377390
O            -0.054613      0.426237     -0.357830
O            -0.447903     -0.429683      0.401363
O             0.048245     -0.438413      0.366109
O             0.480226      0.383341     -0.393473
H            -0.463841     -0.175586      0.304668
H             0.294453      0.152684      0.415095
H             0.396278      0.341555      0.363021
data_nwchem_pspw

_audit_creation_date   Tue Nov 14 07:57:17 2023
_audit_creation_method    generated by PSPW module of NWChem


_cell_length_a            10.0667
_cell_length_b             9.1552
_cell_length_c             9.2041
_cell_angle_alpha         90.0000
_cell_angle_beta          90.0000
_cell_angle_gamma         90.0000

_symmetry_space_group_name_H-M     P1  

loop_
_atom_site_type_symbol
_atom_site_fract_x
_atom_site_fract_y
_atom_site_fract_z
Fe            0.140716     -0.242871      0.220698
Fe            0.357353     -0.088412     -0.021707
Fe           -0.144354     -0.084367     -0.228902
Fe           -0.350595     -0.271227      0.020015
H            -0.064676     -0.237518      0.034463
H            -0.418280     -0.099895     -0.193375
H             0.079383     -0.066775     -0.026576
H             0.379218     -0.269851      0.183602
O            -0.203210     -0.255439     -0.110460
O            -0.293980     -0.100565      0.173848
O             0.206189     -0.063157      0.098715
O             0.285381     -0.253002     -0.139273
O            -0.047437     -0.229676      0.136352
O            -0.447084     -0.109775     -0.092380
O             0.051100     -0.073786     -0.127815
O             0.439740     -0.259540      0.102246
Fe            0.135906      0.087808      0.232528
Fe            0.354142      0.233336     -0.019189
Fe           -0.127496      0.254996     -0.216562
Fe           -0.356851      0.066355      0.041759
H            -0.063028      0.100462      0.044458
H            -0.423752      0.229068     -0.205586
H             0.096914      0.279316     -0.039214
H             0.394205      0.080264      0.205816
O            -0.219439      0.085457     -0.101949
O            -0.289338      0.244099      0.138850
O             0.197984      0.245413      0.101232
O             0.306787      0.085264     -0.158785
O            -0.048187      0.082896      0.144925
O            -0.457855      0.232040     -0.108354
O             0.072173      0.258524     -0.138320
O             0.450068      0.090324      0.115798
Fe            0.134513      0.412541      0.232081
Fe            0.349151     -0.415561     -0.022184
Fe           -0.153262     -0.413103     -0.245890
Fe           -0.347167      0.406534      0.004379
H            -0.098197      0.429043      0.054466
H            -0.406472     -0.417333     -0.210357
H             0.085340     -0.420396     -0.062494
H             0.423524      0.394880      0.186939
O            -0.185645      0.410947     -0.099652
O            -0.301115     -0.446034      0.156025
O             0.180108     -0.415353      0.093817
O             0.306035      0.418828     -0.164039
O            -0.057411      0.417195      0.149545
O            -0.442787     -0.427880     -0.113637
O             0.050897     -0.421576     -0.163229
O             0.452223      0.418954      0.090986
Fe            0.147052     -0.254421     -0.276474
Fe            0.355272     -0.077760      0.484467
Fe           -0.128839     -0.068819      0.293263
Fe           -0.368479     -0.234867     -0.499680
H            -0.070202     -0.257357     -0.463929
H            -0.362202     -0.102312      0.256752
H             0.091061     -0.076174      0.453100
H             0.417069     -0.262723     -0.312633
O            -0.194983     -0.237534      0.406958
O            -0.305243     -0.085392     -0.349686
O             0.200322     -0.078097     -0.390368
O             0.288355     -0.243436      0.350754
O            -0.057395     -0.255408     -0.359978
O            -0.484782     -0.093959      0.361431
O             0.063170     -0.079862      0.351278
O             0.448811     -0.264576     -0.411474
Fe            0.146155      0.081347     -0.257954
H             0.428914      0.303636     -0.389347
Fe           -0.152257      0.266700      0.283366
Fe           -0.348158      0.099210     -0.439622
H            -0.081888      0.077510     -0.451514
H            -0.385946      0.248572      0.308182
H             0.130723      0.218680     -0.495286
H             0.417954      0.068215     -0.298520
O            -0.205278      0.082662      0.412403
O            -0.293546      0.275990     -0.351350
O             0.190681      0.254634     -0.419236
O             0.295453      0.092829      0.343521
O            -0.050437      0.072687     -0.350627
O            -0.430695      0.263052      0.399474
O             0.050943      0.228394      0.347988
O             0.452849      0.075167     -0.397428
Fe            0.137513      0.424673     -0.289497
Cu            0.381507     -0.432375      0.452867
Fe           -0.151894     -0.405810      0.275917
Fe           -0.369490      0.425976     -0.475961
H            -0.090303      0.423298     -0.458231
H            -0.407342     -0.449448      0.283682
H             0.112593     -0.401721      0.424013
H             0.385640      0.434857     -0.232106
O            -0.191773      0.431878      0.414876
O            -0.303358     -0.413854     -0.362562
O             0.199842     -0.417793     -0.405507
O             0.291732      0.397744      0.361635
O            -0.055611      0.423312     -0.356243
O            -0.435488     -0.430663      0.384079
O             0.053494     -0.402859      0.343271
O             0.449259      0.405705     -0.374211
H             0.473910     -0.109753      0.269134
H             0.319678      0.193670      0.359140
H             0.271942      0.352306      0.456137
data_nwchem_pspw

_audit_creation_date   Tue Nov 14 10:14:38 2023
_audit_creation_method    generated by PSPW module of NWChem


_cell_length_a            10.0667
_cell_length_b             9.1552
_cell_length_c             9.2041
_cell_angle_alpha         90.0000
_cell_angle_beta          90.0000
_cell_angle_gamma         90.0000

_symmetry_space_group_name_H-M     P1  

loop_
_atom_site_type_symbol
_atom_site_fract_x
_atom_site_fract_y
_atom_site_fract_z
Fe            0.153992     -0.264326      0.229729
Fe            0.349497     -0.069861     -0.027808
Fe           -0.166948     -0.081965     -0.229713
Fe           -0.339096     -0.239164      0.026687
H            -0.066919     -0.239863      0.045746
H            -0.414665     -0.072190     -0.195631
H             0.092108     -0.096951     -0.036613
H             0.402784     -0.231795      0.214730
O            -0.193814     -0.244189     -0.105993
O            -0.274516     -0.056110      0.157884
O             0.193462     -0.072898      0.103181
O             0.288181     -0.238807     -0.119914
O            -0.050837     -0.252023      0.148515
O            -0.449780     -0.087735     -0.097619
O             0.039389     -0.086393     -0.128498
O             0.447672     -0.235853      0.121532
Fe            0.146675      0.088394      0.225405
Fe            0.351198      0.248009     -0.024865
Fe           -0.146246      0.249065     -0.237629
Fe           -0.359635      0.091276     -0.005558
H            -0.053838      0.066599      0.046520
H            -0.441789      0.277117     -0.218107
H             0.056655      0.237525     -0.047513
H             0.413054      0.098878      0.210649
O            -0.201956      0.090064     -0.115984
O            -0.301482      0.250376      0.134702
O             0.186401      0.239363      0.097724
O             0.296843      0.086299     -0.166744
O            -0.027982      0.082416      0.144930
O            -0.459187      0.248277     -0.118063
O             0.048205      0.254159     -0.149649
O             0.444793      0.093494      0.112393
Fe            0.133302      0.403019      0.245294
Fe            0.360472     -0.404893      0.015102
Fe           -0.147794     -0.424289     -0.233806
Fe           -0.359791      0.411969      0.022035
H            -0.101318      0.410911      0.039769
H            -0.414124     -0.405686     -0.188010
H             0.072100     -0.411334     -0.043513
H             0.413800      0.379044      0.202040
O            -0.200658      0.414116     -0.106206
O            -0.299835     -0.417287      0.149678
O             0.197859     -0.427479      0.114662
O             0.314289      0.432060     -0.154795
O            -0.060371      0.406447      0.137820
O            -0.459266     -0.406842     -0.095964
O             0.045500     -0.423171     -0.142676
O             0.438842      0.421792      0.110975
Fe            0.155446     -0.251719     -0.267210
Fe            0.361635     -0.087934      0.480447
Fe           -0.118395     -0.081645      0.280211
Fe           -0.359031     -0.236023     -0.487639
H            -0.077639     -0.273053     -0.453823
H            -0.334806     -0.045899      0.235355
H             0.109812     -0.104611      0.448634
H             0.432911     -0.258808     -0.296767
O            -0.205220     -0.249431      0.391101
O            -0.316443     -0.076891     -0.347236
O             0.199271     -0.099908     -0.412194
O             0.313068     -0.247880      0.342105
O            -0.049637     -0.261111     -0.354379
O            -0.439924     -0.087559      0.376875
O             0.065953     -0.097980      0.351538
O             0.447124     -0.257171     -0.400888
Fe            0.130933      0.057659     -0.264097
H             0.448873      0.300917     -0.388316
Fe           -0.149491      0.249169      0.268648
Fe           -0.351922      0.095688     -0.480005
H            -0.092997      0.060459     -0.449428
H            -0.413625      0.262197      0.292653
H             0.115909      0.232365     -0.481804
H             0.418980      0.057809     -0.310410
O            -0.193260      0.077159      0.395284
O            -0.298156      0.260839     -0.352687
O             0.172592      0.229946     -0.398566
O             0.294522      0.094751      0.352591
O            -0.053618      0.061240     -0.352299
O            -0.429704      0.256221      0.394833
O             0.043816      0.236641      0.347500
O             0.444388      0.087402     -0.407499
Fe            0.139557      0.417572     -0.279177
Cu            0.370085     -0.407477      0.471569
Fe           -0.152092     -0.415329      0.269879
Fe           -0.362568      0.413272     -0.484956
H            -0.087186      0.427988     -0.449284
H            -0.431779     -0.422552      0.293032
H             0.064919     -0.417615      0.464996
H             0.383822      0.427061     -0.230935
O            -0.207854      0.420326      0.409510
O            -0.299323     -0.407211     -0.371185
O             0.210142     -0.417898     -0.389661
O             0.298474      0.404939      0.376203
O            -0.044779      0.411011     -0.360252
O            -0.445714     -0.433350      0.396656
O             0.048784     -0.415368      0.363339
O             0.475889      0.397895     -0.359512
H            -0.477907     -0.101798      0.282834
H             0.306830      0.158923      0.433810
H             0.285134      0.347948      0.461796
data_nwchem_pspw

_audit_creation_date   Tue Nov 14 12:17:12 2023
_audit_creation_method    generated by PSPW module of NWChem


_cell_length_a            10.0667
_cell_length_b             9.1552
_cell_length_c             9.2041
_cell_angle_alpha         90.0000
_cell_angle_beta          90.0000
_cell_angle_gamma         90.0000

_symmetry_space_group_name_H-M     P1  

loop_
_atom_site_type_symbol
_atom_site_fract_x
_atom_site_fract_y
_atom_site_fract_z
Fe            0.138999     -0.253802      0.199750
Fe            0.364656     -0.077282     -0.017841
Fe           -0.146527     -0.087340     -0.232081
Fe           -0.358032     -0.261520      0.032022
H            -0.109297     -0.241201      0.050752
H            -0.407785     -0.068147     -0.219338
H             0.102390     -0.049496     -0.064928
H             0.372068     -0.269352      0.262541
O            -0.199698     -0.248940     -0.090740
O            -0.294315     -0.071691      0.156360
O             0.199693     -0.066610      0.102535
O             0.286748     -0.235079     -0.137804
O            -0.056975     -0.246658      0.140833
O            -0.442115     -0.071379     -0.118787
O             0.055739     -0.065772     -0.157221
O             0.453801     -0.232894      0.103723
Fe            0.136630      0.088043      0.220914
Fe            0.342546      0.258967     -0.019881
Fe           -0.147686      0.251460     -0.193971
Fe           -0.361701      0.099617     -0.004064
H            -0.071214      0.066706      0.045696
H            -0.452424      0.281252     -0.218123
H             0.089927      0.258947     -0.051371
H             0.419650      0.092837      0.198633
O            -0.191916      0.080923     -0.095384
O            -0.300381      0.247429      0.140906
O             0.189965      0.256925      0.104122
O             0.300228      0.096903     -0.150152
O            -0.048648      0.074850      0.148086
O            -0.454161      0.270297     -0.113254
O             0.052603      0.258570     -0.148913
O             0.455847      0.099141      0.100718
Fe            0.133857      0.409524      0.252202
Fe            0.364296     -0.406208     -0.023004
Fe           -0.147645     -0.408731     -0.221527
Fe           -0.360538      0.422959      0.015485
H            -0.097724      0.422502      0.056396
H            -0.423642     -0.425312     -0.202091
H             0.074696     -0.437810     -0.039910
H             0.418277      0.459921      0.187999
O            -0.192741      0.420714     -0.080029
O            -0.311589     -0.420031      0.162286
O             0.203611     -0.431171      0.105660
O             0.311296      0.431480     -0.175405
O            -0.067223      0.412028      0.157434
O            -0.454656     -0.407607     -0.103806
O             0.049515     -0.416510     -0.138797
O             0.444092      0.416004      0.097926
Fe            0.155572     -0.234963     -0.275007
Fe            0.359805     -0.090607      0.472439
Fe           -0.135729     -0.087994      0.281805
Fe           -0.351473     -0.261161     -0.474354
H            -0.081214     -0.248358     -0.451032
H            -0.372534     -0.044811      0.214405
H             0.082018     -0.069021      0.444176
H             0.426338     -0.235851     -0.293867
O            -0.198088     -0.247858      0.399866
O            -0.318830     -0.081319     -0.363339
O             0.213149     -0.071874     -0.396769
O             0.300477     -0.252732      0.334727
O            -0.059937     -0.235593     -0.348558
O            -0.455474     -0.137714      0.376249
O             0.054901     -0.062276      0.344324
O             0.443789     -0.272399     -0.387855
Fe            0.151213      0.088859     -0.286936
H             0.446077      0.304862     -0.416986
Fe           -0.154024      0.229997      0.274994
Fe           -0.352010      0.083934     -0.477730
H            -0.088207      0.087194     -0.459863
H            -0.389277      0.264085      0.295402
H             0.139287      0.260535      0.491746
H             0.447592      0.058117     -0.310672
O            -0.210598      0.067756      0.395706
O            -0.287197      0.249458     -0.354298
O             0.186545      0.256852     -0.412243
O             0.301822      0.086091      0.340178
O            -0.050262      0.080436     -0.364728
O            -0.429868      0.242615      0.396376
O             0.055421      0.249653      0.351979
O             0.460898      0.088667     -0.409815
Fe            0.130903      0.432463     -0.296101
Cu            0.361255     -0.443104     -0.499123
Fe           -0.155421     -0.426631      0.286005
Fe           -0.345167      0.401005     -0.481869
H            -0.092363      0.415233     -0.440967
H            -0.408749     -0.443921      0.303570
H             0.110644     -0.391910      0.443576
H             0.385430      0.430688     -0.245094
O            -0.184736      0.402382      0.415572
O            -0.302457     -0.431052     -0.353518
O             0.183210     -0.394212     -0.407556
O             0.298528      0.419739      0.361518
O            -0.062256      0.423786     -0.339768
O            -0.434212     -0.448657      0.406143
O             0.061888     -0.400104      0.350466
O             0.484254      0.391230     -0.375049
H            -0.475234     -0.197437      0.291412
H             0.303739      0.155967      0.417749
H             0.358846      0.337864      0.367482
data_nwchem_pspw

_audit_creation_date   Tue Nov 14 17:00:31 2023
_audit_creation_method    generated by PSPW module of NWChem


_cell_length_a            10.0667
_cell_length_b             9.1552
_cell_length_c             9.2041
_cell_angle_alpha         90.0000
_cell_angle_beta          90.0000
_cell_angle_gamma         90.0000

_symmetry_space_group_name_H-M     P1  

loop_
_atom_site_type_symbol
_atom_site_fract_x
_atom_site_fract_y
_atom_site_fract_z
Fe            0.132798     -0.248324      0.198958
Fe            0.374872     -0.104052      0.008771
Fe           -0.141958     -0.081012     -0.219367
Fe           -0.346546     -0.268011      0.031141
H            -0.107357     -0.242487      0.052068
H            -0.390909     -0.086763     -0.189162
H             0.109488     -0.090698     -0.048180
H             0.357927     -0.241199      0.257795
O            -0.186666     -0.244752     -0.095147
O            -0.292935     -0.069992      0.148380
O             0.195398     -0.071040      0.102405
O             0.315267     -0.254347     -0.154539
O            -0.062433     -0.241542      0.146325
O            -0.425591     -0.092182     -0.090723
O             0.065322     -0.084935     -0.142625
O             0.457534     -0.246133      0.127581
Fe            0.127969      0.090647      0.221525
Fe            0.353272      0.212753     -0.021281
Fe           -0.133675      0.265461     -0.229074
Fe           -0.351742      0.094537      0.011337
H            -0.085218      0.081733      0.050699
H            -0.415019      0.264825     -0.219857
H             0.083799      0.276574     -0.046938
H             0.417774      0.101085      0.227400
O            -0.196817      0.095612     -0.103011
O            -0.304190      0.251588      0.154828
O             0.195784      0.245968      0.095562
O             0.318027      0.047540     -0.153408
O            -0.054173      0.085625      0.151016
O            -0.452772      0.257395     -0.122621
O             0.067755      0.251901     -0.148518
O             0.454450      0.077314      0.130280
Fe            0.133602      0.407292      0.216676
Fe            0.348128     -0.423574     -0.015758
Fe           -0.147867     -0.416632     -0.222115
Fe           -0.361424      0.418561      0.018912
H            -0.073935      0.394094      0.047095
H            -0.426551     -0.406561     -0.204512
H             0.103851     -0.426833     -0.060396
H             0.419078      0.412634      0.192700
O            -0.203983      0.422644     -0.094134
O            -0.292608     -0.421959      0.171059
O             0.188119     -0.419345      0.086786
O             0.300177      0.408389     -0.160640
O            -0.055611      0.406131      0.148638
O            -0.448937     -0.416695     -0.102055
O             0.051310     -0.430291     -0.148521
O             0.438356      0.405804      0.090813
Fe            0.157045     -0.262236     -0.273909
Fe            0.346882     -0.077061      0.492641
Fe           -0.139461     -0.068798      0.286639
Fe           -0.351284     -0.237888     -0.481763
H            -0.069881     -0.240984     -0.444466
H            -0.361501     -0.066599      0.224542
H             0.095467     -0.066732      0.448752
H             0.415450     -0.260867     -0.304126
O            -0.196519     -0.234889      0.395042
O            -0.287588     -0.080145     -0.351256
O             0.179615     -0.079524     -0.419201
O             0.293478     -0.240605      0.336641
O            -0.042307     -0.246410     -0.343688
O            -0.476094     -0.099962      0.366199
O             0.058988     -0.068511      0.344965
O             0.444386     -0.251730     -0.406043
Fe            0.156116      0.069239     -0.262818
H             0.436801      0.308642     -0.401057
Fe           -0.146594      0.255857      0.277683
Fe           -0.354298      0.111573     -0.469488
H            -0.069371      0.099953     -0.434672
H            -0.400173      0.264798      0.291861
H             0.126577      0.230558     -0.488736
H             0.448750      0.048080     -0.290911
O            -0.187993      0.096883      0.413452
O            -0.303242      0.282410     -0.352347
O             0.189864      0.234683     -0.405294
O             0.291025      0.076115      0.331957
O            -0.049103      0.094160     -0.331976
O            -0.441138      0.257408      0.389896
O             0.058751      0.242011      0.351489
O             0.469830      0.059577     -0.393945
Fe            0.135691      0.419080     -0.308322
Cu            0.348390     -0.437445      0.489288
Fe           -0.139344     -0.399081      0.287424
Fe           -0.371802      0.420402     -0.490545
H            -0.094772      0.431661     -0.453905
H            -0.423359     -0.412351      0.300690
H             0.105911     -0.399947      0.427216
H             0.377601      0.409819     -0.225999
O            -0.204057      0.424635      0.408116
O            -0.311339     -0.418373     -0.355495
O             0.168456     -0.405657     -0.417666
O             0.305555      0.417359      0.317872
O            -0.059714      0.420813     -0.354541
O            -0.455997     -0.413541      0.400782
O             0.051166     -0.407675      0.335299
O             0.458235      0.410190     -0.387040
H            -0.481026     -0.167677      0.285836
H             0.276089      0.147106      0.407231
H             0.354306      0.341370      0.364911