data_nwchem_pspw

_audit_creation_date   Sun Aug 18 19:38:01 2024
_audit_creation_method    generated by PSPW module of NWChem


_cell_length_a            10.0667
_cell_length_b             9.1552
_cell_length_c             9.2041
_cell_angle_alpha         90.0000
_cell_angle_beta          90.0000
_cell_angle_gamma         90.0000

_symmetry_space_group_name_H-M     P1  

loop_
_atom_site_type_symbol
_atom_site_fract_x
_atom_site_fract_y
_atom_site_fract_z
Fe            0.146735     -0.250000      0.224756
Fe            0.353175     -0.083327     -0.025375
Fe           -0.146825     -0.083327     -0.224625
Fe           -0.353265     -0.250000      0.025244
H            -0.085221     -0.250000      0.049134
H            -0.414737     -0.083030     -0.201101
H             0.085263     -0.083030     -0.048899
H             0.414779     -0.250000      0.200866
O            -0.196748     -0.250000     -0.095276
O            -0.303195     -0.083277      0.154599
O             0.196805     -0.083277      0.095401
O             0.303252     -0.250000     -0.154724
O            -0.053396     -0.250000      0.148894
O            -0.446594     -0.082953     -0.101355
O             0.053406     -0.082954     -0.148645
O             0.446604     -0.250000      0.101106
Lu            0.146825      0.083327      0.224625
Fe            0.353265      0.250000     -0.025244
Fe           -0.146735      0.250000     -0.224756
Fe           -0.353175      0.083327      0.025375
H            -0.085263      0.083030      0.048899
H            -0.414779      0.250000     -0.200866
H             0.085221      0.250000     -0.049134
H             0.414737      0.083030      0.201101
O            -0.196805      0.083277     -0.095401
O            -0.303252      0.250000      0.154724
O             0.196748      0.250000      0.095276
O             0.303195      0.083277     -0.154599
O            -0.053406      0.082954      0.148645
O            -0.446604      0.250000     -0.101106
O             0.053396      0.250000     -0.148894
O             0.446594      0.082953      0.101355
Fe            0.146825      0.416673      0.224625
Fe            0.353175     -0.416673     -0.025375
Fe           -0.146825     -0.416673     -0.224625
Fe           -0.353175      0.416673      0.025375
H            -0.085263      0.416970      0.048899
H            -0.414737     -0.416970     -0.201101
H             0.085263     -0.416970     -0.048899
H             0.414737      0.416970      0.201101
O            -0.196805      0.416723     -0.095401
O            -0.303195     -0.416723      0.154599
O             0.196805     -0.416723      0.095401
O             0.303195      0.416723     -0.154599
O            -0.053406      0.417047      0.148645
O            -0.446594     -0.417047     -0.101355
O             0.053406     -0.417047     -0.148645
O             0.446594      0.417046      0.101355
Fe            0.146735     -0.250000     -0.275244
Fe            0.353175     -0.083327      0.474625
Fe           -0.146825     -0.083327      0.275375
Fe           -0.353265     -0.250000     -0.474756
H            -0.085221     -0.250000     -0.450866
H            -0.414737     -0.083030      0.298899
H             0.085263     -0.083030      0.451101
H             0.414779     -0.250000     -0.299134
O            -0.196748     -0.250000      0.404724
O            -0.303195     -0.083277     -0.345401
O             0.196805     -0.083277     -0.404599
O             0.303252     -0.250000      0.345276
O            -0.053396     -0.250000     -0.351106
O            -0.446594     -0.082953      0.398645
O             0.053406     -0.082954      0.351355
O             0.446604     -0.250000     -0.398894
Fe            0.146825      0.083327     -0.275375
Fe            0.353265      0.250000      0.474756
Fe           -0.146735      0.250000      0.275244
Fe           -0.353175      0.083327     -0.474625
H            -0.085263      0.083030     -0.451101
H            -0.414779      0.250000      0.299134
H             0.085221      0.250000      0.450866
H             0.414737      0.083030     -0.298899
O            -0.196805      0.083277      0.404599
O            -0.303252      0.250000     -0.345276
O             0.196748      0.250000     -0.404724
O             0.303195      0.083277      0.345401
O            -0.053406      0.082954     -0.351355
O            -0.446604      0.250000      0.398894
O             0.053396      0.250000      0.351106
O             0.446594      0.082953     -0.398645
Fe            0.146825      0.416673     -0.275375
Lu            0.353175     -0.416673      0.474625
Fe           -0.146825     -0.416673      0.275375
Fe           -0.353175      0.416673     -0.474625
H            -0.085263      0.416970     -0.451101
H            -0.414737     -0.416970      0.298899
H             0.085263     -0.416970      0.451101
H             0.414737      0.416970     -0.298899
O            -0.196805      0.416723      0.404599
O            -0.303195     -0.416723     -0.345401
O             0.196805     -0.416723     -0.404599
O             0.303195      0.416723      0.345401
O            -0.053406      0.417047     -0.351355
O            -0.446594     -0.417047      0.398645
O             0.053406     -0.417047      0.351355
O             0.446594      0.417046     -0.398645
data_nwchem_pspw

_audit_creation_date   Sun Aug 18 19:48:46 2024
_audit_creation_method    generated by PSPW module of NWChem


_cell_length_a            10.0667
_cell_length_b             9.1552
_cell_length_c             9.2041
_cell_angle_alpha         90.0000
_cell_angle_beta          90.0000
_cell_angle_gamma         90.0000

_symmetry_space_group_name_H-M     P1  

loop_
_atom_site_type_symbol
_atom_site_fract_x
_atom_site_fract_y
_atom_site_fract_z
Fe            0.146735     -0.250000      0.224756
Fe            0.353175     -0.083327     -0.025375
Fe           -0.146825     -0.083327     -0.224625
Fe           -0.353265     -0.250000      0.025244
H            -0.085221     -0.250000      0.049134
H            -0.414737     -0.083030     -0.201101
H             0.085263     -0.083030     -0.048899
H             0.414779     -0.250000      0.200866
O            -0.196748     -0.250000     -0.095276
O            -0.303195     -0.083277      0.154599
O             0.196805     -0.083277      0.095401
O             0.303252     -0.250000     -0.154724
O            -0.053396     -0.250000      0.148894
O            -0.446594     -0.082953     -0.101355
O             0.053406     -0.082954     -0.148645
O             0.446604     -0.250000      0.101106
Lu            0.146825      0.083327      0.224625
Fe            0.353265      0.250000     -0.025244
Fe           -0.146735      0.250000     -0.224756
Fe           -0.353175      0.083327      0.025375
H            -0.085263      0.083030      0.048899
H            -0.414779      0.250000     -0.200866
H             0.085221      0.250000     -0.049134
H             0.414737      0.083030      0.201101
O            -0.196805      0.083277     -0.095401
O            -0.303252      0.250000      0.154724
O             0.196748      0.250000      0.095276
O             0.303195      0.083277     -0.154599
O            -0.053406      0.082954      0.148645
O            -0.446604      0.250000     -0.101106
O             0.053396      0.250000     -0.148894
O             0.446594      0.082953      0.101355
Fe            0.146825      0.416673      0.224625
Fe            0.353175     -0.416673     -0.025375
Fe           -0.146825     -0.416673     -0.224625
Fe           -0.353175      0.416673      0.025375
H            -0.085263      0.416970      0.048899
H            -0.414737     -0.416970     -0.201101
H             0.085263     -0.416970     -0.048899
H             0.414737      0.416970      0.201101
O            -0.196805      0.416723     -0.095401
O            -0.303195     -0.416723      0.154599
O             0.196805     -0.416723      0.095401
O             0.303195      0.416723     -0.154599
O            -0.053406      0.417047      0.148645
O            -0.446594     -0.417047     -0.101355
O             0.053406     -0.417047     -0.148645
O             0.446594      0.417046      0.101355
Fe            0.146735     -0.250000     -0.275244
Fe            0.353175     -0.083327      0.474625
Fe           -0.146825     -0.083327      0.275375
Fe           -0.353265     -0.250000     -0.474756
H            -0.085221     -0.250000     -0.450866
H            -0.414737     -0.083030      0.298899
H             0.085263     -0.083030      0.451101
H             0.414779     -0.250000     -0.299134
O            -0.196748     -0.250000      0.404724
O            -0.303195     -0.083277     -0.345401
O             0.196805     -0.083277     -0.404599
O             0.303252     -0.250000      0.345276
O            -0.053396     -0.250000     -0.351106
O            -0.446594     -0.082953      0.398645
O             0.053406     -0.082954      0.351355
O             0.446604     -0.250000     -0.398894
Fe            0.146825      0.083327     -0.275375
Fe            0.353265      0.250000      0.474756
Fe           -0.146735      0.250000      0.275244
Fe           -0.353175      0.083327     -0.474625
H            -0.085263      0.083030     -0.451101
H            -0.414779      0.250000      0.299134
H             0.085221      0.250000      0.450866
H             0.414737      0.083030     -0.298899
O            -0.196805      0.083277      0.404599
O            -0.303252      0.250000     -0.345276
O             0.196748      0.250000     -0.404724
O             0.303195      0.083277      0.345401
O            -0.053406      0.082954     -0.351355
O            -0.446604      0.250000      0.398894
O             0.053396      0.250000      0.351106
O             0.446594      0.082953     -0.398645
Fe            0.146825      0.416673     -0.275375
Lu            0.353175     -0.416673      0.474625
Fe           -0.146825     -0.416673      0.275375
Fe           -0.353175      0.416673     -0.474625
H            -0.085263      0.416970     -0.451101
H            -0.414737     -0.416970      0.298899
H             0.085263     -0.416970      0.451101
H             0.414737      0.416970     -0.298899
O            -0.196805      0.416723      0.404599
O            -0.303195     -0.416723     -0.345401
O             0.196805     -0.416723     -0.404599
O             0.303195      0.416723      0.345401
O            -0.053406      0.417047     -0.351355
O            -0.446594     -0.417047      0.398645
O             0.053406     -0.417047      0.351355
O             0.446594      0.417046     -0.398645
data_nwchem_pspw

_audit_creation_date   Sun Aug 18 19:58:22 2024
_audit_creation_method    generated by PSPW module of NWChem


_cell_length_a            10.0667
_cell_length_b             9.1552
_cell_length_c             9.2041
_cell_angle_alpha         90.0000
_cell_angle_beta          90.0000
_cell_angle_gamma         90.0000

_symmetry_space_group_name_H-M     P1  

loop_
_atom_site_type_symbol
_atom_site_fract_x
_atom_site_fract_y
_atom_site_fract_z
Fe            0.146735     -0.250000      0.224756
Fe            0.353175     -0.083327     -0.025375
Fe           -0.146825     -0.083327     -0.224625
Fe           -0.353265     -0.250000      0.025244
H            -0.085221     -0.250000      0.049134
H            -0.414737     -0.083030     -0.201101
H             0.085263     -0.083030     -0.048899
H             0.414779     -0.250000      0.200866
O            -0.196748     -0.250000     -0.095276
O            -0.303195     -0.083277      0.154599
O             0.196805     -0.083277      0.095401
O             0.303252     -0.250000     -0.154724
O            -0.053396     -0.250000      0.148894
O            -0.446594     -0.082953     -0.101355
O             0.053406     -0.082954     -0.148645
O             0.446604     -0.250000      0.101106
Lu            0.146825      0.083327      0.224625
Fe            0.353265      0.250000     -0.025244
Fe           -0.146735      0.250000     -0.224756
Fe           -0.353175      0.083327      0.025375
H            -0.085263      0.083030      0.048899
H            -0.414779      0.250000     -0.200866
H             0.085221      0.250000     -0.049134
H             0.414737      0.083030      0.201101
O            -0.196805      0.083277     -0.095401
O            -0.303252      0.250000      0.154724
O             0.196748      0.250000      0.095276
O             0.303195      0.083277     -0.154599
O            -0.053406      0.082954      0.148645
O            -0.446604      0.250000     -0.101106
O             0.053396      0.250000     -0.148894
O             0.446594      0.082953      0.101355
Fe            0.146825      0.416673      0.224625
Fe            0.353175     -0.416673     -0.025375
Fe           -0.146825     -0.416673     -0.224625
Fe           -0.353175      0.416673      0.025375
H            -0.085263      0.416970      0.048899
H            -0.414737     -0.416970     -0.201101
H             0.085263     -0.416970     -0.048899
H             0.414737      0.416970      0.201101
O            -0.196805      0.416723     -0.095401
O            -0.303195     -0.416723      0.154599
O             0.196805     -0.416723      0.095401
O             0.303195      0.416723     -0.154599
O            -0.053406      0.417047      0.148645
O            -0.446594     -0.417047     -0.101355
O             0.053406     -0.417047     -0.148645
O             0.446594      0.417046      0.101355
Fe            0.146735     -0.250000     -0.275244
Fe            0.353175     -0.083327      0.474625
Fe           -0.146825     -0.083327      0.275375
Fe           -0.353265     -0.250000     -0.474756
H            -0.085221     -0.250000     -0.450866
H            -0.414737     -0.083030      0.298899
H             0.085263     -0.083030      0.451101
H             0.414779     -0.250000     -0.299134
O            -0.196748     -0.250000      0.404724
O            -0.303195     -0.083277     -0.345401
O             0.196805     -0.083277     -0.404599
O             0.303252     -0.250000      0.345276
O            -0.053396     -0.250000     -0.351106
O            -0.446594     -0.082953      0.398645
O             0.053406     -0.082954      0.351355
O             0.446604     -0.250000     -0.398894
Fe            0.146825      0.083327     -0.275375
Fe            0.353265      0.250000      0.474756
Fe           -0.146735      0.250000      0.275244
Fe           -0.353175      0.083327     -0.474625
H            -0.085263      0.083030     -0.451101
H            -0.414779      0.250000      0.299134
H             0.085221      0.250000      0.450866
H             0.414737      0.083030     -0.298899
O            -0.196805      0.083277      0.404599
O            -0.303252      0.250000     -0.345276
O             0.196748      0.250000     -0.404724
O             0.303195      0.083277      0.345401
O            -0.053406      0.082954     -0.351355
O            -0.446604      0.250000      0.398894
O             0.053396      0.250000      0.351106
O             0.446594      0.082953     -0.398645
Fe            0.146825      0.416673     -0.275375
Lu            0.353175     -0.416673      0.474625
Fe           -0.146825     -0.416673      0.275375
Fe           -0.353175      0.416673     -0.474625
H            -0.085263      0.416970     -0.451101
H            -0.414737     -0.416970      0.298899
H             0.085263     -0.416970      0.451101
H             0.414737      0.416970     -0.298899
O            -0.196805      0.416723      0.404599
O            -0.303195     -0.416723     -0.345401
O             0.196805     -0.416723     -0.404599
O             0.303195      0.416723      0.345401
O            -0.053406      0.417047     -0.351355
O            -0.446594     -0.417047      0.398645
O             0.053406     -0.417047      0.351355
O             0.446594      0.417046     -0.398645
data_nwchem_pspw

_audit_creation_date   Sun Aug 18 22:17:19 2024
_audit_creation_method    generated by PSPW module of NWChem


_cell_length_a            10.0667
_cell_length_b             9.1552
_cell_length_c             9.2041
_cell_angle_alpha         90.0000
_cell_angle_beta          90.0000
_cell_angle_gamma         90.0000

_symmetry_space_group_name_H-M     P1  

loop_
_atom_site_type_symbol
_atom_site_fract_x
_atom_site_fract_y
_atom_site_fract_z
Fe            0.146735     -0.250000      0.224756
Fe            0.353175     -0.083327     -0.025375
Fe           -0.146825     -0.083327     -0.224625
Fe           -0.353265     -0.250000      0.025244
H            -0.085221     -0.250000      0.049134
H            -0.414737     -0.083030     -0.201101
H             0.085263     -0.083030     -0.048899
H             0.414779     -0.250000      0.200866
O            -0.196748     -0.250000     -0.095276
O            -0.303195     -0.083277      0.154599
O             0.196805     -0.083277      0.095401
O             0.303252     -0.250000     -0.154724
O            -0.053396     -0.250000      0.148894
O            -0.446594     -0.082953     -0.101355
O             0.053406     -0.082954     -0.148645
O             0.446604     -0.250000      0.101106
Lu            0.146825      0.083327      0.224625
Fe            0.353265      0.250000     -0.025244
Fe           -0.146735      0.250000     -0.224756
Fe           -0.353175      0.083327      0.025375
H            -0.085263      0.083030      0.048899
H            -0.414779      0.250000     -0.200866
H             0.085221      0.250000     -0.049134
H             0.414737      0.083030      0.201101
O            -0.196805      0.083277     -0.095401
O            -0.303252      0.250000      0.154724
O             0.196748      0.250000      0.095276
O             0.303195      0.083277     -0.154599
O            -0.053406      0.082954      0.148645
O            -0.446604      0.250000     -0.101106
O             0.053396      0.250000     -0.148894
O             0.446594      0.082953      0.101355
Fe            0.146825      0.416673      0.224625
Fe            0.353175     -0.416673     -0.025375
Fe           -0.146825     -0.416673     -0.224625
Fe           -0.353175      0.416673      0.025375
H            -0.085263      0.416970      0.048899
H            -0.414737     -0.416970     -0.201101
H             0.085263     -0.416970     -0.048899
H             0.414737      0.416970      0.201101
O            -0.196805      0.416723     -0.095401
O            -0.303195     -0.416723      0.154599
O             0.196805     -0.416723      0.095401
O             0.303195      0.416723     -0.154599
O            -0.053406      0.417047      0.148645
O            -0.446594     -0.417047     -0.101355
O             0.053406     -0.417047     -0.148645
O             0.446594      0.417046      0.101355
Fe            0.146735     -0.250000     -0.275244
Fe            0.353175     -0.083327      0.474625
Fe           -0.146825     -0.083327      0.275375
Fe           -0.353265     -0.250000     -0.474756
H            -0.085221     -0.250000     -0.450866
H            -0.414737     -0.083030      0.298899
H             0.085263     -0.083030      0.451101
H             0.414779     -0.250000     -0.299134
O            -0.196748     -0.250000      0.404724
O            -0.303195     -0.083277     -0.345401
O             0.196805     -0.083277     -0.404599
O             0.303252     -0.250000      0.345276
O            -0.053396     -0.250000     -0.351106
O            -0.446594     -0.082953      0.398645
O             0.053406     -0.082954      0.351355
O             0.446604     -0.250000     -0.398894
Fe            0.146825      0.083327     -0.275375
Fe            0.353265      0.250000      0.474756
Fe           -0.146735      0.250000      0.275244
Fe           -0.353175      0.083327     -0.474625
H            -0.085263      0.083030     -0.451101
H            -0.414779      0.250000      0.299134
H             0.085221      0.250000      0.450866
H             0.414737      0.083030     -0.298899
O            -0.196805      0.083277      0.404599
O            -0.303252      0.250000     -0.345276
O             0.196748      0.250000     -0.404724
O             0.303195      0.083277      0.345401
O            -0.053406      0.082954     -0.351355
O            -0.446604      0.250000      0.398894
O             0.053396      0.250000      0.351106
O             0.446594      0.082953     -0.398645
Fe            0.146825      0.416673     -0.275375
Lu            0.353175     -0.416673      0.474625
Fe           -0.146825     -0.416673      0.275375
Fe           -0.353175      0.416673     -0.474625
H            -0.085263      0.416970     -0.451101
H            -0.414737     -0.416970      0.298899
H             0.085263     -0.416970      0.451101
H             0.414737      0.416970     -0.298899
O            -0.196805      0.416723      0.404599
O            -0.303195     -0.416723     -0.345401
O             0.196805     -0.416723     -0.404599
O             0.303195      0.416723      0.345401
O            -0.053406      0.417047     -0.351355
O            -0.446594     -0.417047      0.398645
O             0.053406     -0.417047      0.351355
O             0.446594      0.417046     -0.398645
data_nwchem_pspw

_audit_creation_date   Sun Aug 18 23:05:28 2024
_audit_creation_method    generated by PSPW module of NWChem


_cell_length_a            10.0667
_cell_length_b             9.1552
_cell_length_c             9.2041
_cell_angle_alpha         90.0000
_cell_angle_beta          90.0000
_cell_angle_gamma         90.0000

_symmetry_space_group_name_H-M     P1  

loop_
_atom_site_type_symbol
_atom_site_fract_x
_atom_site_fract_y
_atom_site_fract_z
Fe            0.146735     -0.250000      0.224756
Fe            0.353175     -0.083327     -0.025375
Fe           -0.146825     -0.083327     -0.224625
Fe           -0.353265     -0.250000      0.025244
H            -0.085221     -0.250000      0.049134
H            -0.414737     -0.083030     -0.201101
H             0.085263     -0.083030     -0.048899
H             0.414779     -0.250000      0.200866
O            -0.196748     -0.250000     -0.095276
O            -0.303195     -0.083277      0.154599
O             0.196805     -0.083277      0.095401
O             0.303252     -0.250000     -0.154724
O            -0.053396     -0.250000      0.148894
O            -0.446594     -0.082953     -0.101355
O             0.053406     -0.082954     -0.148645
O             0.446604     -0.250000      0.101106
Lu            0.146825      0.083327      0.224625
Fe            0.353265      0.250000     -0.025244
Fe           -0.146735      0.250000     -0.224756
Fe           -0.353175      0.083327      0.025375
H            -0.085263      0.083030      0.048899
H            -0.414779      0.250000     -0.200866
H             0.085221      0.250000     -0.049134
H             0.414737      0.083030      0.201101
O            -0.196805      0.083277     -0.095401
O            -0.303252      0.250000      0.154724
O             0.196748      0.250000      0.095276
O             0.303195      0.083277     -0.154599
O            -0.053406      0.082954      0.148645
O            -0.446604      0.250000     -0.101106
O             0.053396      0.250000     -0.148894
O             0.446594      0.082953      0.101355
Fe            0.146825      0.416673      0.224625
Fe            0.353175     -0.416673     -0.025375
Fe           -0.146825     -0.416673     -0.224625
Fe           -0.353175      0.416673      0.025375
H            -0.085263      0.416970      0.048899
H            -0.414737     -0.416970     -0.201101
H             0.085263     -0.416970     -0.048899
H             0.414737      0.416970      0.201101
O            -0.196805      0.416723     -0.095401
O            -0.303195     -0.416723      0.154599
O             0.196805     -0.416723      0.095401
O             0.303195      0.416723     -0.154599
O            -0.053406      0.417047      0.148645
O            -0.446594     -0.417047     -0.101355
O             0.053406     -0.417047     -0.148645
O             0.446594      0.417046      0.101355
Fe            0.146735     -0.250000     -0.275244
Fe            0.353175     -0.083327      0.474625
Fe           -0.146825     -0.083327      0.275375
Fe           -0.353265     -0.250000     -0.474756
H            -0.085221     -0.250000     -0.450866
H            -0.414737     -0.083030      0.298899
H             0.085263     -0.083030      0.451101
H             0.414779     -0.250000     -0.299134
O            -0.196748     -0.250000      0.404724
O            -0.303195     -0.083277     -0.345401
O             0.196805     -0.083277     -0.404599
O             0.303252     -0.250000      0.345276
O            -0.053396     -0.250000     -0.351106
O            -0.446594     -0.082953      0.398645
O             0.053406     -0.082954      0.351355
O             0.446604     -0.250000     -0.398894
Fe            0.146825      0.083327     -0.275375
Fe            0.353265      0.250000      0.474756
Fe           -0.146735      0.250000      0.275244
Fe           -0.353175      0.083327     -0.474625
H            -0.085263      0.083030     -0.451101
H            -0.414779      0.250000      0.299134
H             0.085221      0.250000      0.450866
H             0.414737      0.083030     -0.298899
O            -0.196805      0.083277      0.404599
O            -0.303252      0.250000     -0.345276
O             0.196748      0.250000     -0.404724
O             0.303195      0.083277      0.345401
O            -0.053406      0.082954     -0.351355
O            -0.446604      0.250000      0.398894
O             0.053396      0.250000      0.351106
O             0.446594      0.082953     -0.398645
Fe            0.146825      0.416673     -0.275375
Lu            0.353175     -0.416673      0.474625
Fe           -0.146825     -0.416673      0.275375
Fe           -0.353175      0.416673     -0.474625
H            -0.085263      0.416970     -0.451101
H            -0.414737     -0.416970      0.298899
H             0.085263     -0.416970      0.451101
H             0.414737      0.416970     -0.298899
O            -0.196805      0.416723      0.404599
O            -0.303195     -0.416723     -0.345401
O             0.196805     -0.416723     -0.404599
O             0.303195      0.416723      0.345401
O            -0.053406      0.417047     -0.351355
O            -0.446594     -0.417047      0.398645
O             0.053406     -0.417047      0.351355
O             0.446594      0.417046     -0.398645
data_nwchem_pspw

_audit_creation_date   Sun Aug 18 23:34:49 2024
_audit_creation_method    generated by PSPW module of NWChem


_cell_length_a            10.0667
_cell_length_b             9.1552
_cell_length_c             9.2041
_cell_angle_alpha         90.0000
_cell_angle_beta          90.0000
_cell_angle_gamma         90.0000

_symmetry_space_group_name_H-M     P1  

loop_
_atom_site_type_symbol
_atom_site_fract_x
_atom_site_fract_y
_atom_site_fract_z
Fe            0.146735     -0.250000      0.224756
Fe            0.353175     -0.083327     -0.025375
Fe           -0.146825     -0.083327     -0.224625
Fe           -0.353265     -0.250000      0.025244
H            -0.085221     -0.250000      0.049134
H            -0.414737     -0.083030     -0.201101
H             0.085263     -0.083030     -0.048899
H             0.414779     -0.250000      0.200866
O            -0.196748     -0.250000     -0.095276
O            -0.303195     -0.083277      0.154599
O             0.196805     -0.083277      0.095401
O             0.303252     -0.250000     -0.154724
O            -0.053396     -0.250000      0.148894
O            -0.446594     -0.082953     -0.101355
O             0.053406     -0.082954     -0.148645
O             0.446604     -0.250000      0.101106
Lu            0.146825      0.083327      0.224625
Fe            0.353265      0.250000     -0.025244
Fe           -0.146735      0.250000     -0.224756
Fe           -0.353175      0.083327      0.025375
H            -0.085263      0.083030      0.048899
H            -0.414779      0.250000     -0.200866
H             0.085221      0.250000     -0.049134
H             0.414737      0.083030      0.201101
O            -0.196805      0.083277     -0.095401
O            -0.303252      0.250000      0.154724
O             0.196748      0.250000      0.095276
O             0.303195      0.083277     -0.154599
O            -0.053406      0.082954      0.148645
O            -0.446604      0.250000     -0.101106
O             0.053396      0.250000     -0.148894
O             0.446594      0.082953      0.101355
Fe            0.146825      0.416673      0.224625
Fe            0.353175     -0.416673     -0.025375
Fe           -0.146825     -0.416673     -0.224625
Fe           -0.353175      0.416673      0.025375
H            -0.085263      0.416970      0.048899
H            -0.414737     -0.416970     -0.201101
H             0.085263     -0.416970     -0.048899
H             0.414737      0.416970      0.201101
O            -0.196805      0.416723     -0.095401
O            -0.303195     -0.416723      0.154599
O             0.196805     -0.416723      0.095401
O             0.303195      0.416723     -0.154599
O            -0.053406      0.417047      0.148645
O            -0.446594     -0.417047     -0.101355
O             0.053406     -0.417047     -0.148645
O             0.446594      0.417046      0.101355
Fe            0.146735     -0.250000     -0.275244
Fe            0.353175     -0.083327      0.474625
Fe           -0.146825     -0.083327      0.275375
Fe           -0.353265     -0.250000     -0.474756
H            -0.085221     -0.250000     -0.450866
H            -0.414737     -0.083030      0.298899
H             0.085263     -0.083030      0.451101
H             0.414779     -0.250000     -0.299134
O            -0.196748     -0.250000      0.404724
O            -0.303195     -0.083277     -0.345401
O             0.196805     -0.083277     -0.404599
O             0.303252     -0.250000      0.345276
O            -0.053396     -0.250000     -0.351106
O            -0.446594     -0.082953      0.398645
O             0.053406     -0.082954      0.351355
O             0.446604     -0.250000     -0.398894
Fe            0.146825      0.083327     -0.275375
Fe            0.353265      0.250000      0.474756
Fe           -0.146735      0.250000      0.275244
Fe           -0.353175      0.083327     -0.474625
H            -0.085263      0.083030     -0.451101
H            -0.414779      0.250000      0.299134
H             0.085221      0.250000      0.450866
H             0.414737      0.083030     -0.298899
O            -0.196805      0.083277      0.404599
O            -0.303252      0.250000     -0.345276
O             0.196748      0.250000     -0.404724
O             0.303195      0.083277      0.345401
O            -0.053406      0.082954     -0.351355
O            -0.446604      0.250000      0.398894
O             0.053396      0.250000      0.351106
O             0.446594      0.082953     -0.398645
Fe            0.146825      0.416673     -0.275375
Lu            0.353175     -0.416673      0.474625
Fe           -0.146825     -0.416673      0.275375
Fe           -0.353175      0.416673     -0.474625
H            -0.085263      0.416970     -0.451101
H            -0.414737     -0.416970      0.298899
H             0.085263     -0.416970      0.451101
H             0.414737      0.416970     -0.298899
O            -0.196805      0.416723      0.404599
O            -0.303195     -0.416723     -0.345401
O             0.196805     -0.416723     -0.404599
O             0.303195      0.416723      0.345401
O            -0.053406      0.417047     -0.351355
O            -0.446594     -0.417047      0.398645
O             0.053406     -0.417047      0.351355
O             0.446594      0.417046     -0.398645
data_nwchem_pspw

_audit_creation_date   Mon Aug 19 00:30:13 2024
_audit_creation_method    generated by PSPW module of NWChem


_cell_length_a            10.0667
_cell_length_b             9.1552
_cell_length_c             9.2041
_cell_angle_alpha         90.0000
_cell_angle_beta          90.0000
_cell_angle_gamma         90.0000

_symmetry_space_group_name_H-M     P1  

loop_
_atom_site_type_symbol
_atom_site_fract_x
_atom_site_fract_y
_atom_site_fract_z
Fe            0.146735     -0.250000      0.224756
Fe            0.353175     -0.083327     -0.025375
Fe           -0.146825     -0.083327     -0.224625
Fe           -0.353265     -0.250000      0.025244
H            -0.085221     -0.250000      0.049134
H            -0.414737     -0.083030     -0.201101
H             0.085263     -0.083030     -0.048899
H             0.414779     -0.250000      0.200866
O            -0.196748     -0.250000     -0.095276
O            -0.303195     -0.083277      0.154599
O             0.196805     -0.083277      0.095401
O             0.303252     -0.250000     -0.154724
O            -0.053396     -0.250000      0.148894
O            -0.446594     -0.082953     -0.101355
O             0.053406     -0.082954     -0.148645
O             0.446604     -0.250000      0.101106
Lu            0.146825      0.083327      0.224625
Fe            0.353265      0.250000     -0.025244
Fe           -0.146735      0.250000     -0.224756
Fe           -0.353175      0.083327      0.025375
H            -0.085263      0.083030      0.048899
H            -0.414779      0.250000     -0.200866
H             0.085221      0.250000     -0.049134
H             0.414737      0.083030      0.201101
O            -0.196805      0.083277     -0.095401
O            -0.303252      0.250000      0.154724
O             0.196748      0.250000      0.095276
O             0.303195      0.083277     -0.154599
O            -0.053406      0.082954      0.148645
O            -0.446604      0.250000     -0.101106
O             0.053396      0.250000     -0.148894
O             0.446594      0.082953      0.101355
Fe            0.146825      0.416673      0.224625
Fe            0.353175     -0.416673     -0.025375
Fe           -0.146825     -0.416673     -0.224625
Fe           -0.353175      0.416673      0.025375
H            -0.085263      0.416970      0.048899
H            -0.414737     -0.416970     -0.201101
H             0.085263     -0.416970     -0.048899
H             0.414737      0.416970      0.201101
O            -0.196805      0.416723     -0.095401
O            -0.303195     -0.416723      0.154599
O             0.196805     -0.416723      0.095401
O             0.303195      0.416723     -0.154599
O            -0.053406      0.417047      0.148645
O            -0.446594     -0.417047     -0.101355
O             0.053406     -0.417047     -0.148645
O             0.446594      0.417046      0.101355
Fe            0.146735     -0.250000     -0.275244
Fe            0.353175     -0.083327      0.474625
Fe           -0.146825     -0.083327      0.275375
Fe           -0.353265     -0.250000     -0.474756
H            -0.085221     -0.250000     -0.450866
H            -0.414737     -0.083030      0.298899
H             0.085263     -0.083030      0.451101
H             0.414779     -0.250000     -0.299134
O            -0.196748     -0.250000      0.404724
O            -0.303195     -0.083277     -0.345401
O             0.196805     -0.083277     -0.404599
O             0.303252     -0.250000      0.345276
O            -0.053396     -0.250000     -0.351106
O            -0.446594     -0.082953      0.398645
O             0.053406     -0.082954      0.351355
O             0.446604     -0.250000     -0.398894
Fe            0.146825      0.083327     -0.275375
Fe            0.353265      0.250000      0.474756
Fe           -0.146735      0.250000      0.275244
Fe           -0.353175      0.083327     -0.474625
H            -0.085263      0.083030     -0.451101
H            -0.414779      0.250000      0.299134
H             0.085221      0.250000      0.450866
H             0.414737      0.083030     -0.298899
O            -0.196805      0.083277      0.404599
O            -0.303252      0.250000     -0.345276
O             0.196748      0.250000     -0.404724
O             0.303195      0.083277      0.345401
O            -0.053406      0.082954     -0.351355
O            -0.446604      0.250000      0.398894
O             0.053396      0.250000      0.351106
O             0.446594      0.082953     -0.398645
Fe            0.146825      0.416673     -0.275375
Lu            0.353175     -0.416673      0.474625
Fe           -0.146825     -0.416673      0.275375
Fe           -0.353175      0.416673     -0.474625
H            -0.085263      0.416970     -0.451101
H            -0.414737     -0.416970      0.298899
H             0.085263     -0.416970      0.451101
H             0.414737      0.416970     -0.298899
O            -0.196805      0.416723      0.404599
O            -0.303195     -0.416723     -0.345401
O             0.196805     -0.416723     -0.404599
O             0.303195      0.416723      0.345401
O            -0.053406      0.417047     -0.351355
O            -0.446594     -0.417047      0.398645
O             0.053406     -0.417047      0.351355
O             0.446594      0.417046     -0.398645
data_nwchem_pspw

_audit_creation_date   Mon Aug 19 05:10:47 2024
_audit_creation_method    generated by PSPW module of NWChem


_cell_length_a            10.0667
_cell_length_b             9.1552
_cell_length_c             9.2041
_cell_angle_alpha         90.0000
_cell_angle_beta          90.0000
_cell_angle_gamma         90.0000

_symmetry_space_group_name_H-M     P1  

loop_
_atom_site_type_symbol
_atom_site_fract_x
_atom_site_fract_y
_atom_site_fract_z
Fe            0.144902     -0.252811      0.233620
Fe            0.346153     -0.085332     -0.023411
Fe           -0.154204     -0.083870     -0.224453
Fe           -0.355393     -0.247435      0.025749
H            -0.082622     -0.237108      0.042099
H            -0.417805     -0.100446     -0.197295
H             0.090823     -0.076898     -0.038848
H             0.394274     -0.237663      0.204725
O            -0.202998     -0.242977     -0.096094
O            -0.311818     -0.081882      0.161907
O             0.197172     -0.088207      0.086310
O             0.296510     -0.251515     -0.159314
O            -0.060272     -0.233993      0.144091
O            -0.456034     -0.099083     -0.099767
O             0.047226     -0.072665     -0.133957
O             0.443807     -0.254957      0.122900
Lu            0.146796      0.083648      0.219273
Fe            0.345880      0.252327     -0.023616
Fe           -0.153511      0.250166     -0.224378
Fe           -0.351409      0.083269      0.028949
H            -0.106410      0.082784      0.061033
H            -0.419223      0.266931     -0.198702
H             0.088856      0.244693     -0.039291
H             0.421542      0.082919      0.212888
O            -0.198368      0.083639     -0.094304
O            -0.311305      0.248962      0.161680
O             0.196904      0.256365      0.086405
O             0.301034      0.083021     -0.147434
O            -0.059630      0.082929      0.152854
O            -0.457092      0.265576     -0.100814
O             0.045624      0.241420     -0.133379
O             0.451572      0.083047      0.115358
Fe            0.145128      0.420602      0.233834
Fe            0.357629     -0.416990     -0.027133
Fe           -0.149436     -0.416388     -0.220238
Fe           -0.354708      0.414195      0.025673
H            -0.084753      0.404428      0.043319
H            -0.419049     -0.415308     -0.202347
H             0.082757     -0.418238     -0.055790
H             0.393101      0.402094      0.206941
O            -0.204263      0.409652     -0.098369
O            -0.306655     -0.416592      0.147725
O             0.206202     -0.416999      0.107650
O             0.296186      0.419629     -0.159055
O            -0.059742      0.400368      0.144578
O            -0.459052     -0.417726     -0.102772
O             0.049996     -0.416297     -0.155377
O             0.444742      0.421822      0.123269
Fe            0.148752     -0.250599     -0.276083
Fe            0.353854     -0.073407      0.474207
Fe           -0.149713     -0.082318      0.271225
Fe           -0.347645     -0.247159     -0.469185
H            -0.068534     -0.261313     -0.444519
H            -0.416766     -0.065882      0.303790
H             0.085934     -0.071295      0.448248
H             0.441090     -0.236485     -0.285515
O            -0.192714     -0.257878      0.410365
O            -0.300693     -0.087751     -0.341906
O             0.198599     -0.074315     -0.390251
O             0.283508     -0.231753      0.345896
O            -0.049994     -0.256537     -0.341186
O            -0.439849     -0.075158      0.406419
O             0.037606     -0.087718      0.359725
O             0.463962     -0.239096     -0.391301
Fe            0.139793      0.082877     -0.270644
Fe            0.354401      0.239625      0.474771
Fe           -0.149554      0.248943      0.271172
Fe           -0.349315      0.082766     -0.468424
H            -0.090936      0.083061     -0.445868
H            -0.416109      0.234620      0.304092
H             0.085374      0.237495      0.448602
H             0.408410      0.082606     -0.306521
O            -0.197278      0.082857      0.406618
O            -0.299640      0.254046     -0.341493
O             0.199947      0.240000     -0.388605
O             0.295657      0.082806      0.363770
O            -0.062140      0.083431     -0.343700
O            -0.438576      0.241064      0.407045
O             0.037221      0.255614      0.359851
O             0.442952      0.082910     -0.404579
Fe            0.148318      0.417552     -0.276598
Lu            0.368103     -0.416932      0.439474
Fe           -0.143041     -0.416760      0.292020
Fe           -0.347670      0.413742     -0.468738
H            -0.069950      0.428366     -0.444497
H            -0.380077     -0.415967      0.291131
H             0.114758     -0.415373     -0.475211
H             0.443017      0.403287     -0.286121
O            -0.193402      0.425020      0.409619
O            -0.313277     -0.415906     -0.324850
O             0.184438     -0.417120     -0.399708
O             0.284353      0.394867      0.346092
O            -0.050533      0.423285     -0.341668
O            -0.408312     -0.416867      0.398158
O             0.063722     -0.416883      0.335338
O             0.464724      0.407929     -0.390364
data_nwchem_pspw

_audit_creation_date   Mon Aug 19 09:23:07 2024
_audit_creation_method    generated by PSPW module of NWChem


_cell_length_a            10.0667
_cell_length_b             9.1552
_cell_length_c             9.2041
_cell_angle_alpha         90.0000
_cell_angle_beta          90.0000
_cell_angle_gamma         90.0000

_symmetry_space_group_name_H-M     P1  

loop_
_atom_site_type_symbol
_atom_site_fract_x
_atom_site_fract_y
_atom_site_fract_z
Fe            0.147444     -0.248267      0.226658
Fe            0.350865     -0.091373     -0.017068
Fe           -0.151307     -0.080076     -0.227169
Fe           -0.348208     -0.251849      0.028564
H            -0.089679     -0.244084      0.036942
H            -0.427344     -0.098699     -0.214380
H             0.092087     -0.077772     -0.044467
H             0.462057     -0.258527      0.197012
O            -0.205113     -0.244487     -0.108338
O            -0.306802     -0.086168      0.142359
O             0.190736     -0.084335      0.091031
O             0.298040     -0.246265     -0.164081
O            -0.064699     -0.240190      0.138695
O            -0.448700     -0.091828     -0.113207
O             0.049566     -0.074304     -0.141334
O             0.447897     -0.259950      0.096138
Lu            0.151367      0.082856      0.226261
Fe            0.349165      0.256600     -0.018404
Fe           -0.151232      0.247581     -0.229044
Fe           -0.353005      0.083674      0.016213
H            -0.093960      0.081358      0.035050
H            -0.426724      0.272416     -0.212579
H             0.094303      0.240958     -0.046045
H             0.430876      0.085024      0.193496
O            -0.191298      0.084221     -0.086439
O            -0.306537      0.251983      0.142016
O             0.192029      0.252561      0.093973
O             0.294167      0.083150     -0.149191
O            -0.068579      0.083485      0.140305
O            -0.449386      0.258565     -0.112513
O             0.051395      0.238812     -0.142597
O             0.449642      0.083905      0.088347
Fe            0.147355      0.413790      0.228204
Fe            0.357687     -0.416734     -0.026645
Fe           -0.156742     -0.416195     -0.215216
Fe           -0.348210      0.418309      0.026842
H            -0.089536      0.409467      0.037378
H            -0.411204     -0.411962     -0.190315
H             0.077184     -0.416204     -0.043098
H             0.459523      0.430315      0.196226
O            -0.204526      0.410834     -0.107147
O            -0.327876     -0.416819      0.153544
O             0.190759     -0.416843      0.086749
O             0.297242      0.411108     -0.162565
O            -0.065166      0.407929      0.138587
O            -0.439700     -0.418198     -0.091344
O             0.039399     -0.417818     -0.140923
O             0.448333      0.426849      0.094810
Fe            0.136157     -0.241248     -0.269439
Fe            0.369926     -0.087697      0.473038
Fe           -0.143088     -0.082402      0.267228
Fe           -0.353575     -0.256411     -0.487107
H            -0.075544     -0.248840     -0.446471
H            -0.391220     -0.082149      0.305306
H             0.082748     -0.083743      0.456821
H             0.415935     -0.230700     -0.293624
O            -0.208869     -0.245801      0.383556
O            -0.294997     -0.089314     -0.364328
O             0.204949     -0.079198     -0.395076
O             0.295993     -0.238766      0.360822
O            -0.053723     -0.260279     -0.345616
O            -0.434271     -0.081984      0.401252
O             0.048586     -0.087983      0.358546
O             0.457363     -0.247060     -0.390973
Fe            0.149420      0.083130     -0.279869
Fe            0.369733      0.254959      0.474600
Fe           -0.142403      0.249796      0.267060
Fe           -0.335548      0.083129     -0.471688
H            -0.110159      0.082669     -0.451823
H            -0.391311      0.246195      0.307057
H             0.082951      0.251413      0.456223
H             0.434152      0.083156     -0.303017
O            -0.183590      0.083957      0.393602
O            -0.296143      0.254886     -0.362694
O             0.202496      0.246656     -0.396846
O             0.320176      0.084629      0.351520
O            -0.074800      0.080979     -0.353760
O            -0.434371      0.248347      0.403346
O             0.050490      0.253730      0.357729
O             0.433995      0.082913     -0.405035
Fe            0.136036      0.408081     -0.268367
Lu            0.344826     -0.415426      0.487823
Fe           -0.138709     -0.417325      0.275880
Fe           -0.352422      0.423557     -0.486331
H            -0.073783      0.416690     -0.447343
H            -0.433348     -0.414934      0.300038
H             0.102541     -0.419633     -0.473945
H             0.417879      0.395456     -0.292065
O            -0.206785      0.412870      0.385130
O            -0.285460     -0.417236     -0.367044
O             0.169524     -0.415825     -0.399132
O             0.296620      0.404514      0.360567
O            -0.053928      0.424407     -0.345383
O            -0.453296     -0.416361      0.398557
O             0.060295     -0.416878      0.350211
O             0.455676      0.414245     -0.391073
data_nwchem_pspw

_audit_creation_date   Mon Aug 19 14:22:01 2024
_audit_creation_method    generated by PSPW module of NWChem


_cell_length_a            10.0667
_cell_length_b             9.1552
_cell_length_c             9.2041
_cell_angle_alpha         90.0000
_cell_angle_beta          90.0000
_cell_angle_gamma         90.0000

_symmetry_space_group_name_H-M     P1  

loop_
_atom_site_type_symbol
_atom_site_fract_x
_atom_site_fract_y
_atom_site_fract_z
Fe            0.138596     -0.250112      0.234430
Fe            0.349144     -0.087388     -0.017116
Fe           -0.148627     -0.093516     -0.231039
Fe           -0.356509     -0.244677      0.026186
H            -0.094078     -0.233127      0.055701
H            -0.462241     -0.105804     -0.203053
H             0.077178     -0.094156     -0.051241
H             0.402158     -0.259255      0.179826
O            -0.201287     -0.249494     -0.090523
O            -0.309301     -0.090152      0.161025
O             0.182281     -0.100518      0.089859
O             0.317927     -0.249136     -0.152943
O            -0.053647     -0.239220      0.151527
O            -0.461856     -0.089960     -0.099876
O             0.048475     -0.083761     -0.152946
O             0.442934     -0.247733      0.089339
Lu            0.140586      0.083957      0.216349
Fe            0.348769      0.257406     -0.017644
Fe           -0.147359      0.259400     -0.230294
Fe           -0.369544      0.084424      0.024444
H            -0.090785      0.081096      0.032089
H            -0.452844      0.278812     -0.200600
H             0.074603      0.263166     -0.050944
H             0.417433      0.091270      0.209766
O            -0.218832      0.082624     -0.095295
O            -0.305847      0.257723      0.159870
O             0.184415      0.268332      0.089373
O             0.323941      0.082997     -0.149995
O            -0.057649      0.084227      0.131785
O            -0.463542      0.253434     -0.101215
O             0.046122      0.253963     -0.152335
O             0.449682      0.084789      0.108715
Fe            0.140051      0.417576      0.234029
Fe            0.347202     -0.416612     -0.027252
Fe           -0.156311     -0.417580     -0.222515
Fe           -0.359019      0.409553      0.024406
H            -0.093561      0.403074      0.055157
H            -0.403840     -0.414880     -0.209752
H             0.056235     -0.416464     -0.045882
H             0.404607      0.422818      0.183633
O            -0.202584      0.414789     -0.090731
O            -0.296735     -0.416242      0.169214
O             0.190157     -0.417212      0.094377
O             0.316122      0.417001     -0.153775
O            -0.052409      0.403586      0.150598
O            -0.426731     -0.416598     -0.107944
O             0.054979     -0.416396     -0.149805
O             0.441482      0.413718      0.089812
Fe            0.153928     -0.253447     -0.273147
Fe            0.361293     -0.086734      0.489310
Fe           -0.151005     -0.085656      0.279392
Fe           -0.344960     -0.253830     -0.476497
H            -0.058411     -0.246864     -0.456143
H            -0.419103     -0.092040      0.309902
H             0.084190     -0.079436      0.466210
H             0.422138     -0.264571     -0.296362
O            -0.191296     -0.257490      0.406816
O            -0.307207     -0.087612     -0.338909
O             0.196811     -0.084986     -0.411183
O             0.295879     -0.237239      0.350645
O            -0.042434     -0.259615     -0.354100
O            -0.435078     -0.079964      0.411780
O             0.041558     -0.077125      0.370163
O             0.456952     -0.262976     -0.394241
Fe            0.159423      0.083637     -0.279770
Fe            0.361099      0.253442      0.489524
Fe           -0.149894      0.252602      0.279729
Fe           -0.348356      0.082918     -0.463258
H            -0.098055      0.083908     -0.442321
H            -0.421555      0.262166      0.306508
H             0.089937      0.246264      0.463035
H             0.428848      0.083010     -0.290275
O            -0.190942      0.082691      0.419810
O            -0.306937      0.254487     -0.339481
O             0.196528      0.248304     -0.411141
O             0.316638      0.084581      0.355060
O            -0.064640      0.083585     -0.341071
O            -0.436844      0.248480      0.408477
O             0.043716      0.246255      0.368185
O             0.447601      0.082732     -0.396430
Fe            0.154416      0.420350     -0.272043
Lu            0.362730     -0.417969      0.449105
Fe           -0.142330     -0.416985      0.287592
Fe           -0.345613      0.417417     -0.477221
H            -0.056289      0.423414     -0.457992
H            -0.377661     -0.412962      0.273007
H             0.088472     -0.415449      0.456890
H             0.429093      0.433150     -0.293204
O            -0.193561      0.423457      0.407093
O            -0.302823     -0.416652     -0.352315
O             0.188107     -0.416197     -0.396387
O             0.295670      0.402006      0.348439
O            -0.043514      0.434246     -0.355174
O            -0.426442     -0.414201      0.373845
O             0.048333     -0.418533      0.362060
O             0.455862      0.427686     -0.391151
data_nwchem_pspw

_audit_creation_date   Mon Aug 19 19:23:59 2024
_audit_creation_method    generated by PSPW module of NWChem


_cell_length_a            10.0667
_cell_length_b             9.1552
_cell_length_c             9.2041
_cell_angle_alpha         90.0000
_cell_angle_beta          90.0000
_cell_angle_gamma         90.0000

_symmetry_space_group_name_H-M     P1  

loop_
_atom_site_type_symbol
_atom_site_fract_x
_atom_site_fract_y
_atom_site_fract_z
Fe            0.141258     -0.247435      0.222428
Fe            0.352025     -0.084288     -0.015911
Fe           -0.151641     -0.078399     -0.229460
Fe           -0.350608     -0.247085      0.024829
H            -0.078717     -0.231959      0.040901
H            -0.437387     -0.076348     -0.199596
H             0.065603     -0.076119     -0.049983
H             0.408361     -0.263964      0.189693
O            -0.195696     -0.251652     -0.111673
O            -0.309328     -0.094724      0.160583
O             0.185734     -0.102805      0.080899
O             0.293030     -0.255902     -0.148053
O            -0.054745     -0.243546      0.142017
O            -0.457233     -0.068511     -0.096593
O             0.037114     -0.074959     -0.150189
O             0.429268     -0.237000      0.094511
Lu            0.153402      0.081483      0.217134
Fe            0.349294      0.252913     -0.016364
Fe           -0.150355      0.244568     -0.231524
Fe           -0.366024      0.083640      0.036692
H            -0.115014      0.084823      0.059410
H            -0.447466      0.252751     -0.194971
H             0.060122      0.233720     -0.047632
H             0.433351      0.079178      0.224969
O            -0.203093      0.084759     -0.093045
O            -0.308007      0.261274      0.163216
O             0.188694      0.267357      0.085728
O             0.281184      0.083813     -0.151505
O            -0.064009      0.084164      0.150912
O            -0.458214      0.239855     -0.093083
O             0.038065      0.235922     -0.151139
O             0.460940      0.084410      0.122741
Fe            0.143422      0.414459      0.222240
Fe            0.368992     -0.415948     -0.034567
Fe           -0.160276     -0.415979     -0.234894
Fe           -0.347588      0.411784      0.022313
H            -0.073127      0.404606      0.043340
H            -0.409465     -0.427353     -0.207806
H             0.069853     -0.415151     -0.036782
H             0.404973      0.434386      0.191062
O            -0.193245      0.418888     -0.112357
O            -0.312750     -0.418244      0.156713
O             0.200001     -0.414871      0.095006
O             0.294310      0.425869     -0.150910
O            -0.052051      0.411573      0.145044
O            -0.439183     -0.417290     -0.108488
O             0.052015     -0.419416     -0.136641
O             0.428323      0.402952      0.096964
Fe            0.130130     -0.241729     -0.261442
Fe            0.368237     -0.087000      0.478255
Fe           -0.141643     -0.088869      0.275322
Fe           -0.342180     -0.243463     -0.494907
H            -0.081649     -0.250080     -0.454802
H            -0.408771     -0.088763      0.303576
H             0.082833     -0.101452      0.461447
H             0.437213     -0.252664     -0.280844
O            -0.193642     -0.257977      0.384315
O            -0.294286     -0.075173     -0.358631
O             0.201162     -0.085409     -0.401160
O             0.299052     -0.243954      0.338984
O            -0.053094     -0.249293     -0.353817
O            -0.441914     -0.079867      0.404440
O             0.047866     -0.087748      0.364333
O             0.468247     -0.253891     -0.380485
Fe            0.148473      0.082724     -0.281475
Fe            0.367362      0.253838      0.478704
Fe           -0.140004      0.254395      0.276859
Fe           -0.368083      0.084845     -0.469550
H            -0.094724      0.081194     -0.446998
H            -0.414580      0.253700      0.299807
H             0.085786      0.259756      0.464251
H             0.407427      0.090469     -0.276857
O            -0.193024      0.083907      0.398444
O            -0.294430      0.238999     -0.357838
O             0.200103      0.254457     -0.401261
O             0.316524      0.082421      0.363155
O            -0.044847      0.083363     -0.358896
O            -0.440564      0.248518      0.403425
O             0.048765      0.257196      0.366349
O             0.435471      0.084594     -0.377183
Fe            0.132984      0.409113     -0.260780
Lu            0.350633     -0.415743      0.483189
Fe           -0.127783     -0.418400      0.272003
Fe           -0.341148      0.411001     -0.495032
H            -0.076099      0.410601     -0.454146
H            -0.412761     -0.415008      0.294486
H             0.097259     -0.422557      0.475201
H             0.436120      0.421984     -0.278314
O            -0.194121      0.424467      0.382315
O            -0.291413     -0.417104     -0.374791
O             0.173679     -0.415033     -0.380042
O             0.302692      0.408827      0.340023
O            -0.052095      0.414223     -0.352196
O            -0.444939     -0.418824      0.390760
O             0.048124     -0.415218      0.379111
O             0.467136      0.423689     -0.377194
data_nwchem_pspw

_audit_creation_date   Tue Aug 20 01:42:01 2024
_audit_creation_method    generated by PSPW module of NWChem


_cell_length_a            10.0667
_cell_length_b             9.1552
_cell_length_c             9.2041
_cell_angle_alpha         90.0000
_cell_angle_beta          90.0000
_cell_angle_gamma         90.0000

_symmetry_space_group_name_H-M     P1  

loop_
_atom_site_type_symbol
_atom_site_fract_x
_atom_site_fract_y
_atom_site_fract_z
Fe            0.142468     -0.250821      0.222927
Fe            0.349171     -0.088535     -0.011364
Fe           -0.152784     -0.083817     -0.226632
Fe           -0.353191     -0.254772      0.021384
H            -0.068958     -0.251328      0.045541
H            -0.403746     -0.076031     -0.188465
H             0.078210     -0.089150     -0.074969
H             0.425535     -0.251335      0.202320
O            -0.195452     -0.249696     -0.099679
O            -0.296348     -0.090784      0.162985
O             0.179036     -0.093591      0.094468
O             0.301906     -0.253679     -0.156086
O            -0.044931     -0.261051      0.146645
O            -0.446663     -0.091999     -0.094736
O             0.053265     -0.069364     -0.173090
O             0.448768     -0.253836      0.102079
Lu            0.144783      0.084230      0.225007
Fe            0.348780      0.254276     -0.012148
Fe           -0.148214      0.252579     -0.230769
Fe           -0.362264      0.081782      0.047739
H            -0.094298      0.084434      0.065348
H            -0.409573      0.223310     -0.189120
H             0.075278      0.259404     -0.070544
H             0.401307      0.082354      0.205230
O            -0.218858      0.083876     -0.104097
O            -0.296998      0.261515      0.164185
O             0.180718      0.261142      0.096793
O             0.312883      0.084112     -0.130899
O            -0.077385      0.082919      0.168870
O            -0.443674      0.254263     -0.095134
O             0.051583      0.238714     -0.170679
O             0.449998      0.081365      0.112070
Fe            0.142081      0.421818      0.224482
Fe            0.356964     -0.416296     -0.043617
Fe           -0.139984     -0.416714     -0.221976
Fe           -0.353638      0.418908      0.023970
H            -0.062852      0.412395      0.040072
H            -0.420892     -0.420858     -0.208714
H             0.099819     -0.412600     -0.045581
H             0.426906      0.424319      0.201383
O            -0.194425      0.415362     -0.100383
O            -0.291834     -0.412468      0.153977
O             0.186698     -0.415537      0.081570
O             0.301842      0.418981     -0.156049
O            -0.040235      0.421769      0.140856
O            -0.442669     -0.419723     -0.104893
O             0.059088     -0.416202     -0.146794
O             0.448238      0.420547      0.099491
Fe            0.140834     -0.254861     -0.272407
Fe            0.362290     -0.093237      0.475318
Fe           -0.145827     -0.082636      0.284589
Fe           -0.341464     -0.249917     -0.475163
H            -0.098137     -0.261972     -0.449860
H            -0.405755     -0.079403      0.298105
H             0.086706     -0.117894      0.461214
H             0.440087     -0.254494     -0.303809
O            -0.187975     -0.246720      0.401492
O            -0.318779     -0.073461     -0.335327
O             0.197458     -0.099097     -0.408980
O             0.300204     -0.238479      0.338564
O            -0.062729     -0.258005     -0.351238
O            -0.441232     -0.091603      0.396737
O             0.052777     -0.096446      0.364875
O             0.463093     -0.247548     -0.405648
Fe            0.163393      0.081354     -0.297633
Fe            0.360612      0.258954      0.476326
Fe           -0.139967      0.251020      0.282656
Fe           -0.354478      0.085714     -0.468902
H            -0.097981      0.083694     -0.449242
H            -0.403845      0.244044      0.302252
H             0.087136      0.282625      0.463355
H             0.410127      0.093187     -0.286106
O            -0.194775      0.084136      0.416910
O            -0.308631      0.245646     -0.334305
O             0.195204      0.262420     -0.407075
O             0.296502      0.080163      0.353122
O            -0.062319      0.083111     -0.349139
O            -0.439980      0.254409      0.400863
O             0.052800      0.263332      0.365351
O             0.429011      0.082205     -0.391287
Fe            0.137018      0.418664     -0.267701
Lu            0.347292     -0.416926      0.463023
Fe           -0.138748     -0.416244      0.269734
Fe           -0.341547      0.416588     -0.473610
H            -0.093537      0.427180     -0.455530
H            -0.365080     -0.429314      0.308968
H             0.100038     -0.418156      0.458546
H             0.428625      0.416029     -0.308404
O            -0.183807      0.415077      0.403708
O            -0.312738     -0.414399     -0.343521
O             0.187399     -0.417967     -0.397686
O             0.304007      0.405930      0.334881
O            -0.067968      0.428835     -0.353611
O            -0.437269     -0.416510      0.387192
O             0.052374     -0.418375      0.359765
O             0.462428      0.411686     -0.409652
data_nwchem_pspw

_audit_creation_date   Tue Aug 20 06:11:28 2024
_audit_creation_method    generated by PSPW module of NWChem


_cell_length_a            10.0667
_cell_length_b             9.1552
_cell_length_c             9.2041
_cell_angle_alpha         90.0000
_cell_angle_beta          90.0000
_cell_angle_gamma         90.0000

_symmetry_space_group_name_H-M     P1  

loop_
_atom_site_type_symbol
_atom_site_fract_x
_atom_site_fract_y
_atom_site_fract_z
Fe            0.146669     -0.248954      0.228059
Fe            0.351063     -0.077132     -0.011143
Fe           -0.149842     -0.071135     -0.232812
Fe           -0.350742     -0.247680      0.025053
H            -0.088878     -0.252899      0.042605
H            -0.417322     -0.096487     -0.204002
H             0.079720     -0.071404     -0.060071
H             0.414163     -0.253504      0.208904
O            -0.208101     -0.234536     -0.105428
O            -0.314478     -0.088628      0.154019
O             0.191026     -0.087349      0.080337
O             0.299013     -0.242740     -0.144052
O            -0.057023     -0.238795      0.139443
O            -0.462044     -0.091280     -0.111282
O             0.043160     -0.064397     -0.157342
O             0.456286     -0.249482      0.113644
Lu            0.161286      0.081083      0.230209
Fe            0.349821      0.245302     -0.010511
Fe           -0.152779      0.238542     -0.229908
Fe           -0.364081      0.085412      0.036693
H            -0.117149      0.088602      0.050776
H            -0.422019      0.256735     -0.202026
H             0.069662      0.226978     -0.062501
H             0.404606      0.076576      0.219324
O            -0.200479      0.084075     -0.089534
O            -0.311936      0.249192      0.155743
O             0.183496      0.250590      0.076434
O             0.295985      0.088212     -0.143592
O            -0.091162      0.084300      0.153968
O            -0.462136      0.258222     -0.102577
O             0.040094      0.228060     -0.162554
O             0.435825      0.081926      0.114698
Fe            0.147051      0.411644      0.222831
Fe            0.352720     -0.414825     -0.025891
Fe           -0.147013     -0.416599     -0.214667
Fe           -0.346464      0.413090      0.026268
H            -0.081070      0.428725      0.044243
H            -0.416034     -0.414793     -0.185428
H             0.111533     -0.410628     -0.055190
H             0.408595      0.402044      0.204034
O            -0.203860      0.403528     -0.103453
O            -0.287932     -0.416869      0.131692
O             0.187726     -0.413767      0.100253
O             0.301110      0.411232     -0.144868
O            -0.055317      0.406790      0.140133
O            -0.455983     -0.409756     -0.091086
O             0.058906     -0.418129     -0.149016
O             0.458533      0.421293      0.115854
Fe            0.140863     -0.244826     -0.271191
Fe            0.362584     -0.092782      0.477151
Fe           -0.147697     -0.082788      0.271083
Fe           -0.351183     -0.251388     -0.478431
H            -0.074918     -0.237208     -0.447298
H            -0.416608     -0.087442      0.292096
H             0.074044     -0.087296      0.458560
H             0.436152     -0.251570     -0.287820
O            -0.200723     -0.233626      0.402974
O            -0.301154     -0.087870     -0.343480
O             0.205272     -0.089117     -0.407854
O             0.295053     -0.233617      0.341960
O            -0.052638     -0.249118     -0.347843
O            -0.454275     -0.073267      0.389357
O             0.050607     -0.090503      0.355497
O             0.459229     -0.240579     -0.389741
Fe            0.154598      0.083685     -0.278681
Fe            0.357406      0.258816      0.475217
Fe           -0.146508      0.246171      0.271487
Fe           -0.366362      0.082381     -0.475979
H            -0.094604      0.086191     -0.477696
H            -0.413684      0.264540      0.295821
H             0.075315      0.272398      0.456264
H             0.417642      0.086174     -0.300225
O            -0.209943      0.084890      0.390888
O            -0.306311      0.247238     -0.344432
O             0.207035      0.254361     -0.408053
O             0.317088      0.085873      0.354388
O            -0.060338      0.077580     -0.378763
O            -0.456333      0.249062      0.390181
O             0.049708      0.259362      0.356248
O             0.441581      0.088133     -0.403045
Fe            0.144097      0.416523     -0.269668
Lu            0.362137     -0.416203      0.460852
Fe           -0.157404     -0.417031      0.287607
Fe           -0.353977      0.412025     -0.477787
H            -0.092653      0.419157     -0.441740
H            -0.401218     -0.413705      0.297049
H             0.086706     -0.409431      0.443564
H             0.423605      0.407417     -0.295988
O            -0.203562      0.402429      0.404240
O            -0.293579     -0.417632     -0.346883
O             0.200569     -0.414775     -0.392895
O             0.293209      0.405733      0.342838
O            -0.050873      0.416455     -0.346201
O            -0.427958     -0.415061      0.392379
O             0.044374     -0.412998      0.349122
O             0.456425      0.408224     -0.395885
data_nwchem_pspw

_audit_creation_date   Tue Aug 20 10:14:21 2024
_audit_creation_method    generated by PSPW module of NWChem


_cell_length_a            10.0667
_cell_length_b             9.1552
_cell_length_c             9.2041
_cell_angle_alpha         90.0000
_cell_angle_beta          90.0000
_cell_angle_gamma         90.0000

_symmetry_space_group_name_H-M     P1  

loop_
_atom_site_type_symbol
_atom_site_fract_x
_atom_site_fract_y
_atom_site_fract_z
Fe            0.144231     -0.252228      0.231844
Fe            0.347723     -0.092503     -0.023658
Fe           -0.148398     -0.084618     -0.239658
Fe           -0.343663     -0.257680      0.019696
H            -0.086460     -0.243829      0.047142
H            -0.418366     -0.098354     -0.185990
H             0.059868     -0.064546     -0.045868
H             0.408070     -0.244974      0.210733
O            -0.200904     -0.247246     -0.098854
O            -0.304127     -0.078595      0.145648
O             0.180442     -0.104987      0.080319
O             0.313560     -0.250260     -0.169888
O            -0.061281     -0.243553      0.147808
O            -0.446782     -0.095892     -0.086696
O             0.038709     -0.062365     -0.148315
O             0.446858     -0.254732      0.115464
Lu            0.150341      0.082818      0.219121
Fe            0.348763      0.254511     -0.021929
Fe           -0.146868      0.246285     -0.235402
Fe           -0.361500      0.086053      0.031346
H            -0.109952      0.082723      0.033432
H            -0.414675      0.263260     -0.190407
H             0.064160      0.244391     -0.043161
H             0.411152      0.077806      0.201262
O            -0.205493      0.080482     -0.100734
O            -0.304909      0.251414      0.141565
O             0.183594      0.272557      0.082385
O             0.290640      0.083551     -0.136651
O            -0.064438      0.076228      0.125918
O            -0.452732      0.258777     -0.094201
O             0.038319      0.253970     -0.145025
O             0.431674      0.080458      0.096665
Fe            0.147229      0.427458      0.225570
Fe            0.364604     -0.416668     -0.017003
Fe           -0.152797     -0.418953     -0.224625
Fe           -0.344259      0.425613      0.022680
H            -0.090579      0.414106      0.044355
H            -0.401887     -0.421987     -0.192312
H             0.119202     -0.414648     -0.053204
H             0.415208      0.395598      0.208685
O            -0.204216      0.409555     -0.099584
O            -0.296214     -0.416450      0.169938
O             0.209418     -0.415810      0.095088
O             0.310512      0.418064     -0.163007
O            -0.053577      0.403127      0.140157
O            -0.444192     -0.412238     -0.093368
O             0.063990     -0.409912     -0.139098
O             0.450665      0.417887      0.115120
Fe            0.139689     -0.245356     -0.260414
Fe            0.364563     -0.081045      0.466582
Fe           -0.149447     -0.072848      0.267147
Fe           -0.350379     -0.256454     -0.474506
H            -0.087515     -0.252408     -0.454126
H            -0.411706     -0.068999      0.298474
H             0.084605     -0.094217      0.461446
H             0.409381     -0.245417     -0.301255
O            -0.201382     -0.245412      0.407422
O            -0.300282     -0.092558     -0.356850
O             0.202747     -0.089054     -0.407819
O             0.295711     -0.247615      0.351550
O            -0.055325     -0.252946     -0.353919
O            -0.444438     -0.083240      0.395858
O             0.059562     -0.079017      0.359753
O             0.462442     -0.245377     -0.392690
Fe            0.163438      0.081366     -0.293048
Fe            0.364010      0.253943      0.472699
Fe           -0.152953      0.246174      0.268095
Fe           -0.353003      0.083770     -0.464710
H            -0.060634      0.088799     -0.454666
H            -0.407329      0.251639      0.297190
H             0.063194      0.258803      0.455897
H             0.437967      0.075296     -0.290309
O            -0.203769      0.082658      0.403835
O            -0.297487      0.258664     -0.357547
O             0.200179      0.256080     -0.400518
O             0.318796      0.083922      0.345228
O            -0.045799      0.082003     -0.352683
O            -0.443615      0.256186      0.395947
O             0.049848      0.244685      0.353878
O             0.457019      0.072793     -0.395305
Fe            0.140125      0.411213     -0.258701
Lu            0.348801     -0.417923      0.473530
Fe           -0.142408     -0.414223      0.296852
Fe           -0.352857      0.421435     -0.477291
H            -0.104687      0.420723     -0.448734
H            -0.404649     -0.439690      0.290459
H             0.080963     -0.412941      0.457872
H             0.400543      0.414792     -0.302363
O            -0.198747      0.415701      0.409469
O            -0.318488     -0.416425     -0.324736
O             0.176933     -0.421574     -0.394816
O             0.286627      0.405771      0.353605
O            -0.061792      0.422676     -0.352049
O            -0.428759     -0.429238      0.394266
O             0.041225     -0.414662      0.358715
O             0.453806      0.401343     -0.392463
data_nwchem_pspw

_audit_creation_date   Tue Aug 20 16:45:38 2024
_audit_creation_method    generated by PSPW module of NWChem


_cell_length_a            10.0667
_cell_length_b             9.1552
_cell_length_c             9.2041
_cell_angle_alpha         90.0000
_cell_angle_beta          90.0000
_cell_angle_gamma         90.0000

_symmetry_space_group_name_H-M     P1  

loop_
_atom_site_type_symbol
_atom_site_fract_x
_atom_site_fract_y
_atom_site_fract_z
Fe            0.150225     -0.251151      0.221396
Fe            0.346070     -0.087769     -0.025362
Fe           -0.145356     -0.079205     -0.218847
Fe           -0.346092     -0.248690      0.029200
H            -0.074943     -0.237535      0.058176
H            -0.415870     -0.066547     -0.189490
H             0.086885     -0.091390     -0.048862
H             0.419057     -0.247529      0.197082
O            -0.188788     -0.248284     -0.089900
O            -0.309783     -0.070666      0.158561
O             0.176506     -0.085940      0.087805
O             0.304947     -0.247823     -0.155872
O            -0.053332     -0.237779      0.160191
O            -0.451394     -0.076236     -0.092699
O             0.047395     -0.089290     -0.147059
O             0.432125     -0.247104      0.092727
Lu            0.136725      0.084258      0.234170
Fe            0.344010      0.251336     -0.022766
Fe           -0.139243      0.247579     -0.225343
Fe           -0.377590      0.084229      0.028421
H            -0.131800      0.074664      0.069135
H            -0.410345      0.239496     -0.190828
H             0.063721      0.259558     -0.038648
H             0.402843      0.087087      0.201136
O            -0.216635      0.089180     -0.099306
O            -0.309464      0.244057      0.161918
O             0.188581      0.262123      0.093962
O             0.294834      0.082411     -0.154583
O            -0.064831      0.093937      0.138014
O            -0.459227      0.240665     -0.098731
O             0.040416      0.244894     -0.139497
O             0.430387      0.083491      0.098030
Fe            0.150565      0.416838      0.220330
Fe            0.347062     -0.419725     -0.029162
Fe           -0.149458     -0.415869     -0.221978
Fe           -0.351578      0.413751      0.029038
H            -0.085015      0.408021      0.057955
H            -0.445099     -0.421862     -0.200583
H             0.075234     -0.438985     -0.049016
H             0.414811      0.407140      0.197537
O            -0.196223      0.416585     -0.096711
O            -0.291942     -0.418272      0.163346
O             0.197825     -0.415757      0.091584
O             0.304762      0.410921     -0.160184
O            -0.045541      0.410066      0.154591
O            -0.454603     -0.420670     -0.098707
O             0.039363     -0.433900     -0.145787
O             0.438217      0.410472      0.096030
Fe            0.138593     -0.236739     -0.278795
Fe            0.358186     -0.091529      0.479232
Fe           -0.147103     -0.087480      0.272238
Fe           -0.344202     -0.237974     -0.488286
H            -0.066752     -0.239861     -0.442379
H            -0.419376     -0.078784      0.299812
H             0.102459     -0.086963      0.464533
H             0.401896     -0.236962     -0.289705
O            -0.182553     -0.242760      0.409845
O            -0.304958     -0.093533     -0.340311
O             0.202681     -0.072530     -0.412009
O             0.314770     -0.235214      0.333028
O            -0.049044     -0.264582     -0.342523
O            -0.444733     -0.090518      0.401277
O             0.065720     -0.088079      0.366099
O             0.449136     -0.254045     -0.379972
Fe            0.154652      0.082053     -0.289854
Fe            0.360574      0.253858      0.476978
Fe           -0.150035      0.251906      0.271484
Fe           -0.341073      0.082450     -0.447568
H            -0.076384      0.081796     -0.454337
H            -0.412784      0.266196      0.310453
H             0.099200      0.250183      0.461158
H             0.426331      0.096022     -0.298291
O            -0.191476      0.083861      0.406967
O            -0.307076      0.249466     -0.329760
O             0.195851      0.243783     -0.415724
O             0.313922      0.081830      0.352865
O            -0.048988      0.076770     -0.351680
O            -0.440997      0.261170      0.411522
O             0.061038      0.258811      0.362249
O             0.461842      0.086174     -0.395807
Fe            0.138039      0.416701     -0.279931
Lu            0.358117     -0.417627      0.456790
Fe           -0.131570     -0.419492      0.292316
Fe           -0.345029      0.408404     -0.479761
H            -0.081724      0.388501     -0.435098
H            -0.359751     -0.420241      0.295271
H             0.086542     -0.426929      0.451287
H             0.398451      0.415190     -0.289240
O            -0.180325      0.413350      0.410349
O            -0.278106     -0.416671     -0.387832
O             0.183045     -0.411237     -0.406657
O             0.305432      0.402963      0.332993
O            -0.053317      0.418789     -0.339645
O            -0.440656     -0.407558      0.367919
O             0.056392     -0.418685      0.343077
O             0.446813      0.423599     -0.383220
data_nwchem_pspw

_audit_creation_date   Tue Aug 20 22:34:29 2024
_audit_creation_method    generated by PSPW module of NWChem


_cell_length_a            10.0667
_cell_length_b             9.1552
_cell_length_c             9.2041
_cell_angle_alpha         90.0000
_cell_angle_beta          90.0000
_cell_angle_gamma         90.0000

_symmetry_space_group_name_H-M     P1  

loop_
_atom_site_type_symbol
_atom_site_fract_x
_atom_site_fract_y
_atom_site_fract_z
Fe            0.145856     -0.258751      0.233659
Fe            0.363018     -0.097416     -0.021907
Fe           -0.161425     -0.082271     -0.226356
Fe           -0.349665     -0.252688      0.018585
H            -0.063644     -0.267781      0.051223
H            -0.404244     -0.064809     -0.200287
H             0.087160     -0.079264     -0.049659
H             0.401052     -0.274707      0.183839
O            -0.201913     -0.254945     -0.099523
O            -0.304096     -0.083593      0.149654
O             0.206864     -0.110574      0.097074
O             0.297878     -0.266824     -0.164959
O            -0.049410     -0.254160      0.152894
O            -0.448922     -0.077404     -0.107878
O             0.035960     -0.074107     -0.139717
O             0.456395     -0.240826      0.106336
Lu            0.154463      0.081233      0.216861
Fe            0.351692      0.263373     -0.022053
Fe           -0.153296      0.251685     -0.236960
Fe           -0.364597      0.081235      0.027548
H            -0.117727      0.077452      0.049351
H            -0.412983      0.257302     -0.196888
H             0.056387      0.242871     -0.048204
H             0.422882      0.070613      0.213727
O            -0.201442      0.085101     -0.106435
O            -0.305163      0.247665      0.147774
O             0.197112      0.269963      0.095440
O             0.296774      0.077919     -0.135111
O            -0.056883      0.076752      0.131082
O            -0.446508      0.256910     -0.098369
O             0.038782      0.254542     -0.150381
O             0.448974      0.091941      0.113525
Fe            0.144600      0.422070      0.236740
Fe            0.351537     -0.415539     -0.031775
Fe           -0.169061     -0.417345     -0.240781
Fe           -0.343124      0.424126      0.019451
H            -0.075073      0.415907      0.055491
H            -0.430379     -0.418784     -0.204452
H             0.052963     -0.419415     -0.032612
H             0.417634      0.414168      0.202502
O            -0.192379      0.419669     -0.103319
O            -0.296222     -0.414331      0.133379
O             0.207714     -0.419227      0.114235
O             0.315835      0.421070     -0.170974
O            -0.044058      0.405329      0.154154
O            -0.450940     -0.415678     -0.104038
O             0.033333     -0.418251     -0.133369
O             0.454212      0.417420      0.103611
Fe            0.130635     -0.260269     -0.257062
Fe            0.363257     -0.074386      0.499071
Fe           -0.141114     -0.082241      0.266177
Fe           -0.345069     -0.243869      0.496971
H            -0.084425     -0.247405     -0.447926
H            -0.422654     -0.094096      0.300343
H             0.104670     -0.091685      0.442530
H             0.417564     -0.266373     -0.293806
O            -0.197456     -0.245892      0.382975
O            -0.301094     -0.076544     -0.354111
O             0.201777     -0.084675     -0.391190
O             0.290231     -0.230336      0.347739
O            -0.059349     -0.245051     -0.346061
O            -0.447891     -0.087950      0.401124
O             0.051599     -0.090610      0.353951
O             0.462666     -0.244291     -0.387638
Fe            0.150790      0.079531     -0.272581
Fe            0.368345      0.249355      0.483644
Fe           -0.143334      0.245797      0.263913
Fe           -0.358329      0.083959     -0.475055
H            -0.080578      0.079006     -0.451311
H            -0.422376      0.247869      0.303412
H             0.095372      0.251638      0.445361
H             0.412399      0.088190     -0.274288
O            -0.198941      0.082815      0.395772
O            -0.304631      0.252259     -0.349205
O             0.194681      0.245144     -0.406806
O             0.317685      0.084254      0.360661
O            -0.056716      0.085761     -0.350249
O            -0.440233      0.253705      0.406273
O             0.056288      0.248874      0.348251
O             0.454031      0.091937     -0.369908
Fe            0.139596      0.414141     -0.260191
Lu            0.348077     -0.416406      0.484063
Fe           -0.133742     -0.415487      0.282680
Fe           -0.347867      0.412449     -0.490078
H            -0.092496      0.418815     -0.461216
H            -0.420793     -0.404275      0.276464
H             0.059066     -0.417288      0.481385
H             0.403748      0.415968     -0.293064
O            -0.204934      0.409378      0.378814
O            -0.305595     -0.402960     -0.367782
O             0.178600     -0.419136     -0.382058
O             0.304148      0.405188      0.349137
O            -0.064816      0.435230     -0.363155
O            -0.443343     -0.416382      0.375694
O             0.057208     -0.406842      0.369989
O             0.453005      0.410582     -0.387236
data_nwchem_pspw

_audit_creation_date   Wed Aug 21 03:57:06 2024
_audit_creation_method    generated by PSPW module of NWChem


_cell_length_a            10.0667
_cell_length_b             9.1552
_cell_length_c             9.2041
_cell_angle_alpha         90.0000
_cell_angle_beta          90.0000
_cell_angle_gamma         90.0000

_symmetry_space_group_name_H-M     P1  

loop_
_atom_site_type_symbol
_atom_site_fract_x
_atom_site_fract_y
_atom_site_fract_z
Fe            0.135463     -0.250727      0.226844
Fe            0.349687     -0.075309     -0.033771
Fe           -0.140362     -0.074644     -0.227749
Fe           -0.354784     -0.257397      0.025966
H            -0.083375     -0.258743      0.051446
H            -0.390315     -0.095259     -0.198192
H             0.088065     -0.087844     -0.063460
H             0.400982     -0.258132      0.186946
O            -0.190899     -0.230178     -0.094156
O            -0.303948     -0.072757      0.163086
O             0.181607     -0.086468      0.084331
O             0.291990     -0.245502     -0.147301
O            -0.056696     -0.258534      0.151779
O            -0.451189     -0.086717     -0.113593
O             0.064656     -0.072857     -0.165292
O             0.450902     -0.234171      0.093535
Lu            0.141064      0.088780      0.229671
Fe            0.356195      0.247568     -0.010675
Fe           -0.139337      0.252649     -0.228095
Fe           -0.358256      0.088179      0.028778
H            -0.109491      0.095700      0.067249
H            -0.389793      0.240954     -0.188449
H             0.099675      0.237050     -0.062790
H             0.425922      0.102858      0.198686
O            -0.199415      0.088911     -0.077962
O            -0.315851      0.254559      0.162634
O             0.185763      0.252594      0.089419
O             0.312694      0.087428     -0.158032
O            -0.069141      0.090454      0.165255
O            -0.447602      0.252354     -0.105496
O             0.068547      0.242918     -0.163222
O             0.458760      0.091683      0.098117
Fe            0.132423      0.421644      0.217039
Fe            0.349085     -0.410582     -0.039195
Fe           -0.137486     -0.405978     -0.216581
Fe           -0.356781      0.419622      0.028736
H            -0.106573      0.407826      0.054954
H            -0.414547     -0.417241     -0.208169
H             0.083013     -0.461158     -0.047414
H             0.398123      0.429437      0.204930
O            -0.194767      0.403721     -0.093558
O            -0.289595     -0.418261      0.158591
O             0.201788     -0.418349      0.110633
O             0.298557      0.418314     -0.157675
O            -0.061896      0.415171      0.149844
O            -0.443145     -0.421907     -0.107347
O             0.056512     -0.428825     -0.141044
O             0.440360      0.424774      0.109005
Fe            0.147107     -0.254654     -0.283340
Fe            0.355831     -0.087965      0.469792
Fe           -0.162419     -0.085558      0.298987
Fe           -0.356432     -0.253092     -0.470206
H            -0.101892     -0.252803     -0.430686
H            -0.426730     -0.093538      0.311971
H             0.071360     -0.109510      0.458287
H             0.434546     -0.218207     -0.302529
O            -0.201594     -0.254113      0.409465
O            -0.291165     -0.095346     -0.339984
O             0.196941     -0.098579     -0.415636
O             0.305842     -0.239641      0.319907
O            -0.047632     -0.246962     -0.342356
O            -0.444482     -0.082599      0.414348
O             0.030128     -0.102645      0.362793
O             0.450778     -0.240666     -0.403675
Fe            0.168939      0.081860     -0.289796
Fe            0.357585      0.244472      0.461644
Fe           -0.160850      0.248019      0.288076
Fe           -0.351573      0.079003     -0.453476
H            -0.080409      0.080969     -0.439987
H            -0.409079      0.254606      0.306910
H             0.094347      0.270751      0.463898
H             0.407502      0.084607     -0.314120
O            -0.213102      0.083283      0.412216
O            -0.293297      0.249278     -0.337916
O             0.199935      0.260723     -0.416289
O             0.324902      0.081046      0.329025
O            -0.039889      0.078205     -0.345071
O            -0.439395      0.259723      0.407947
O             0.049532      0.265845      0.367514
O             0.452170      0.069695     -0.407162
Fe            0.148999      0.416128     -0.274233
Lu            0.360089     -0.424493      0.455435
Fe           -0.144115     -0.421054      0.284730
Fe           -0.355956      0.415493     -0.466078
H            -0.060159      0.395688     -0.447158
H            -0.377700     -0.408401      0.305004
H             0.062222     -0.427015      0.458307
H             0.419088      0.396982     -0.299370
O            -0.198673      0.420633      0.412322
O            -0.289552     -0.420223     -0.351295
O             0.180431     -0.421794     -0.407059
O             0.304479      0.405753      0.331647
O            -0.039156      0.416530     -0.346170
O            -0.426265     -0.413615      0.400868
O             0.046714     -0.408946      0.353041
O             0.436984      0.408112     -0.401771
data_nwchem_pspw

_audit_creation_date   Wed Aug 21 08:14:50 2024
_audit_creation_method    generated by PSPW module of NWChem


_cell_length_a            10.0667
_cell_length_b             9.1552
_cell_length_c             9.2041
_cell_angle_alpha         90.0000
_cell_angle_beta          90.0000
_cell_angle_gamma         90.0000

_symmetry_space_group_name_H-M     P1  

loop_
_atom_site_type_symbol
_atom_site_fract_x
_atom_site_fract_y
_atom_site_fract_z
Fe            0.142053     -0.249522      0.234305
Fe            0.353995     -0.086449     -0.032638
Fe           -0.152612     -0.086738     -0.237111
Fe           -0.350699     -0.247204      0.014581
H            -0.083737     -0.241191      0.044127
H            -0.423956     -0.104534     -0.216702
H             0.080246     -0.062873     -0.062801
H             0.409545     -0.240121      0.200786
O            -0.181975     -0.241508     -0.099185
O            -0.310040     -0.091568      0.161094
O             0.193267     -0.108147      0.086987
O             0.289585     -0.248264     -0.153397
O            -0.056925     -0.243490      0.147115
O            -0.446173     -0.101775     -0.115475
O             0.052914     -0.065455     -0.163867
O             0.453784     -0.256445      0.105419
Lu            0.174554      0.079079      0.221628
Fe            0.354887      0.260432     -0.018707
Fe           -0.150362      0.244575     -0.230082
Fe           -0.353168      0.072647      0.025016
H            -0.097632      0.090024      0.053358
H            -0.421618      0.257764     -0.211030
H             0.050689      0.253727     -0.051890
H             0.428903      0.103770      0.217204
O            -0.195980      0.075765     -0.106179
O            -0.292584      0.236534      0.135531
O             0.194855      0.275142      0.093829
O             0.285708      0.086490     -0.120560
O            -0.060433      0.083305      0.151565
O            -0.450171      0.255974     -0.108846
O             0.036025      0.248479     -0.154087
O             0.444389      0.077465      0.118473
Fe            0.149558      0.421047      0.221710
Fe            0.348836     -0.410825     -0.024931
Fe           -0.161656     -0.416530     -0.224220
Fe           -0.353551      0.407928      0.015154
H            -0.081612      0.425487      0.047721
H            -0.447894     -0.422362     -0.209707
H             0.073962     -0.420988     -0.048830
H             0.405976      0.421774      0.194182
O            -0.196667      0.409853     -0.101167
O            -0.287177     -0.411703      0.133753
O             0.197721     -0.414213      0.087858
O             0.304612      0.410014     -0.156294
O            -0.047386      0.424479      0.146699
O            -0.453877     -0.424420     -0.103534
O             0.028327     -0.412160     -0.140753
O             0.445262      0.409585      0.096300
Fe            0.129841     -0.247022     -0.263590
Fe            0.352922     -0.079066      0.486177
Fe           -0.142396     -0.084937      0.279365
Fe           -0.350673     -0.246620     -0.482973
H            -0.086625     -0.254592     -0.464713
H            -0.415371     -0.064186      0.279083
H             0.081667     -0.084141      0.458827
H             0.434992     -0.244290     -0.292949
O            -0.201065     -0.261163      0.402649
O            -0.302729     -0.081812     -0.375293
O             0.202221     -0.075851     -0.398179
O             0.313690     -0.240679      0.345524
O            -0.070044     -0.252675     -0.361060
O            -0.444316     -0.084827      0.376820
O             0.060425     -0.079000      0.356906
O             0.455028     -0.236623     -0.394138
Fe            0.149750      0.090317     -0.273816
Fe            0.355831      0.264465      0.489235
Fe           -0.148806      0.241705      0.275093
Fe           -0.364513      0.082318     -0.483018
H            -0.106230      0.106993     -0.462924
H            -0.414183      0.237299      0.285411
H             0.082349      0.250218      0.443425
H             0.450381      0.088566     -0.285365
O            -0.217661      0.080530      0.386198
O            -0.312747      0.254276     -0.358309
O             0.197359      0.247994     -0.396406
O             0.327147      0.094239      0.364973
O            -0.067045      0.085866     -0.369562
O            -0.446187      0.250247      0.383242
O             0.055968      0.234447      0.345124
O             0.452005      0.091180     -0.388016
Fe            0.142356      0.408495     -0.261902
Lu            0.350277     -0.409622      0.489632
Fe           -0.144830     -0.417840      0.271767
Fe           -0.348952      0.416435     -0.484587
H            -0.079794      0.423177     -0.448518
H            -0.413414     -0.436545      0.302604
H             0.073168     -0.420747      0.461674
H             0.429798      0.394205     -0.279738
O            -0.197980      0.407090      0.391762
O            -0.328872     -0.412731     -0.345534
O             0.179131     -0.420713     -0.378764
O             0.310288      0.412367      0.334763
O            -0.071652      0.414132     -0.344785
O            -0.449163     -0.431416      0.399900
O             0.047826     -0.422695      0.360084
O             0.446054      0.401255     -0.383980
data_nwchem_pspw

_audit_creation_date   Wed Aug 21 13:09:57 2024
_audit_creation_method    generated by PSPW module of NWChem


_cell_length_a            10.0667
_cell_length_b             9.1552
_cell_length_c             9.2041
_cell_angle_alpha         90.0000
_cell_angle_beta          90.0000
_cell_angle_gamma         90.0000

_symmetry_space_group_name_H-M     P1  

loop_
_atom_site_type_symbol
_atom_site_fract_x
_atom_site_fract_y
_atom_site_fract_z
Fe            0.158628     -0.246709      0.235666
Fe            0.356493     -0.085806     -0.026315
Fe           -0.149595     -0.078804     -0.239001
Fe           -0.343940     -0.247057      0.023999
H            -0.088554     -0.237482      0.051562
H            -0.433365     -0.061117     -0.194906
H             0.113228     -0.093832     -0.062320
H             0.441775     -0.256333      0.195670
O            -0.211753     -0.258373     -0.111439
O            -0.302749     -0.087501      0.165290
O             0.187660     -0.094052      0.084553
O             0.298260     -0.232571     -0.152026
O            -0.056366     -0.238497      0.149980
O            -0.450853     -0.078811     -0.093982
O             0.050295     -0.101322     -0.146159
O             0.457254     -0.275004      0.094005
Lu            0.121678      0.080248      0.221421
Fe            0.358796      0.249883     -0.020054
Fe           -0.143802      0.238907     -0.233369
Fe           -0.359041      0.086878      0.032068
H            -0.114209      0.074842      0.045268
H            -0.403287      0.249660     -0.186597
H             0.094167      0.254374     -0.054337
H             0.408007      0.082741      0.209418
O            -0.205171      0.088132     -0.100818
O            -0.298633      0.253311      0.148532
O             0.190469      0.253912      0.083522
O             0.300359      0.080456     -0.151413
O            -0.080980      0.086956      0.147677
O            -0.435530      0.265811     -0.085365
O             0.051886      0.237478     -0.148543
O             0.439589      0.072846      0.109328
Fe            0.153128      0.415437      0.218596
Fe            0.358345     -0.417721     -0.029102
Fe           -0.146048     -0.419027     -0.223277
Fe           -0.354429      0.419932      0.022608
H            -0.090953      0.425776      0.057385
H            -0.419101     -0.425017     -0.198359
H             0.045039     -0.397128     -0.032400
H             0.422873      0.421946      0.200235
O            -0.209004      0.416402     -0.103506
O            -0.287545     -0.415602      0.143977
O             0.227760     -0.408480      0.112363
O             0.291947      0.411521     -0.138162
O            -0.048128      0.419108      0.151944
O            -0.445920     -0.412354     -0.099714
O             0.043986     -0.426050     -0.132332
O             0.459357      0.403960      0.103142
Fe            0.141333     -0.255276     -0.269175
Fe            0.351030     -0.088118      0.478470
Fe           -0.154137     -0.072627      0.297563
Fe           -0.348186     -0.248200     -0.463850
H            -0.075399     -0.270070     -0.458991
H            -0.398678     -0.074976      0.300108
H             0.057972     -0.108125      0.464294
H             0.431328     -0.215786     -0.301486
O            -0.206169     -0.247540      0.408174
O            -0.315127     -0.076787     -0.326941
O             0.198558     -0.073726     -0.398434
O             0.314567     -0.228373      0.338368
O            -0.040239     -0.236484     -0.366271
O            -0.443828     -0.080306      0.394661
O             0.048099     -0.086303      0.362372
O             0.453080     -0.241238     -0.401375
Fe            0.153036      0.084873     -0.274675
Fe            0.348871      0.237346      0.480336
Fe           -0.153609      0.260446      0.280120
Fe           -0.353868      0.079203     -0.463021
H            -0.082083      0.104540     -0.447083
H            -0.395064      0.260212      0.315300
H             0.082063      0.265241      0.455865
H             0.420986      0.070955     -0.286146
O            -0.196821      0.101964      0.426655
O            -0.320718      0.245031     -0.330779
O             0.203905      0.263874     -0.396638
O             0.306141      0.089011      0.353185
O            -0.044993      0.089215     -0.348809
O            -0.439288      0.267938      0.408098
O             0.049137      0.260604      0.357014
O             0.447435      0.073225     -0.388489
Fe            0.147384      0.427891     -0.268810
Lu            0.362318     -0.429255      0.446101
Fe           -0.135439     -0.410736      0.275128
Fe           -0.341955      0.424964     -0.471377
H            -0.085131      0.431166     -0.441625
H            -0.392483     -0.419264      0.299334
H             0.102686     -0.390935      0.459507
H             0.422322      0.411713     -0.294987
O            -0.189541      0.425717      0.410898
O            -0.288558     -0.413272     -0.349408
O             0.177298     -0.410936     -0.402677
O             0.314105      0.399050      0.327020
O            -0.051694      0.405464     -0.347437
O            -0.431546     -0.413939      0.395420
O             0.064818     -0.413912      0.359978
O             0.441863      0.420732     -0.396293
data_nwchem_pspw

_audit_creation_date   Wed Aug 21 19:24:44 2024
_audit_creation_method    generated by PSPW module of NWChem


_cell_length_a            10.0667
_cell_length_b             9.1552
_cell_length_c             9.2041
_cell_angle_alpha         90.0000
_cell_angle_beta          90.0000
_cell_angle_gamma         90.0000

_symmetry_space_group_name_H-M     P1  

loop_
_atom_site_type_symbol
_atom_site_fract_x
_atom_site_fract_y
_atom_site_fract_z
Fe            0.142940     -0.250875      0.227734
Fe            0.349462     -0.093776     -0.033739
Fe           -0.154558     -0.085414     -0.221582
Fe           -0.349637     -0.256678      0.022450
H            -0.070349     -0.244071      0.048936
H            -0.426771     -0.061951     -0.209360
H             0.078013     -0.079074     -0.052706
H             0.415425     -0.252569      0.199517
O            -0.183808     -0.252750     -0.086558
O            -0.308714     -0.087137      0.147328
O             0.186480     -0.093736      0.084368
O             0.286049     -0.254379     -0.152738
O            -0.052497     -0.262985      0.152981
O            -0.451105     -0.085497     -0.111285
O             0.039552     -0.072492     -0.148232
O             0.443415     -0.252486      0.097304
Lu            0.162917      0.084283      0.230223
Fe            0.331625      0.249031     -0.034660
Fe           -0.145122      0.232863     -0.222804
Fe           -0.358368      0.077717      0.023830
H            -0.069952      0.100089      0.050757
H            -0.415031      0.233553     -0.208144
H             0.091979      0.264658     -0.050697
H             0.422537      0.082571      0.206090
O            -0.212145      0.081036     -0.103936
O            -0.305784      0.253614      0.140671
O             0.172662      0.254472      0.082539
O             0.297228      0.072047     -0.169393
O            -0.048893      0.086430      0.152025
O            -0.451677      0.231445     -0.111007
O             0.049927      0.259748     -0.149402
O             0.434606      0.088583      0.098832
Fe            0.158770      0.415180      0.232887
Fe            0.342897     -0.421517     -0.022604
Fe           -0.148945     -0.420340     -0.214735
Fe           -0.354975      0.415560      0.021872
H            -0.082135      0.412233      0.033916
H            -0.414672     -0.430319     -0.204584
H             0.044237     -0.421926     -0.032951
H             0.430553      0.388568      0.197025
O            -0.194602      0.412984     -0.097623
O            -0.300715     -0.417727      0.148300
O             0.188972     -0.421278      0.100142
O             0.286340      0.416892     -0.143052
O            -0.049529      0.421812      0.132803
O            -0.444502     -0.425979     -0.104929
O             0.027619     -0.418370     -0.135989
O             0.447340      0.415107      0.096953
Fe            0.132592     -0.237444     -0.262871
Fe            0.368271     -0.068943      0.484269
Fe           -0.146008     -0.091192      0.277695
Fe           -0.350534     -0.259192     -0.478902
H            -0.086635     -0.252109     -0.445228
H            -0.417012     -0.104388      0.291502
H             0.068975     -0.097201      0.454896
H             0.416910     -0.228136     -0.289084
O            -0.188551     -0.259474      0.395093
O            -0.289410     -0.089586     -0.358673
O             0.205197     -0.067725     -0.409880
O             0.296705     -0.235953      0.342638
O            -0.058665     -0.246628     -0.344690
O            -0.438225     -0.091381      0.394094
O             0.057312     -0.085535      0.354002
O             0.449031     -0.237653     -0.386655
Fe            0.144388      0.097782     -0.293716
Fe            0.373226      0.269202      0.490007
Fe           -0.146905      0.245925      0.263512
Fe           -0.346440      0.089776     -0.489698
H            -0.080839      0.093692     -0.460078
H            -0.432621      0.255627      0.282225
H             0.072484      0.260016      0.457388
H             0.438455      0.086794     -0.306033
O            -0.198208      0.081826      0.392184
O            -0.300863      0.235618     -0.346686
O             0.204185      0.248138     -0.408468
O             0.334357      0.097649      0.363151
O            -0.055777      0.077818     -0.360598
O            -0.434735      0.262801      0.385833
O             0.049378      0.257064      0.356226
O             0.467166      0.085341     -0.405608
Fe            0.129136      0.414276     -0.270145
Lu            0.343175     -0.407340      0.481847
Fe           -0.145137     -0.426169      0.266256
Fe           -0.340376      0.419459     -0.472526
H            -0.091467      0.411091     -0.468739
H            -0.414043     -0.413757      0.298369
H             0.087488     -0.415275      0.462809
H             0.425891      0.407963     -0.283363
O            -0.193596      0.410637      0.391391
O            -0.304052     -0.419553     -0.340132
O             0.174167     -0.419196     -0.390327
O             0.324229      0.407130      0.340398
O            -0.056038      0.399103     -0.367729
O            -0.440947     -0.412062      0.399486
O             0.064914     -0.420985      0.357350
O             0.458553      0.424553     -0.380524
data_nwchem_pspw

_audit_creation_date   Thu Aug 22 00:59:08 2024
_audit_creation_method    generated by PSPW module of NWChem


_cell_length_a            10.0667
_cell_length_b             9.1552
_cell_length_c             9.2041
_cell_angle_alpha         90.0000
_cell_angle_beta          90.0000
_cell_angle_gamma         90.0000

_symmetry_space_group_name_H-M     P1  

loop_
_atom_site_type_symbol
_atom_site_fract_x
_atom_site_fract_y
_atom_site_fract_z
Fe            0.138910     -0.245416      0.231588
Fe            0.364381     -0.100859     -0.022734
Fe           -0.137146     -0.074889     -0.219327
Fe           -0.348311     -0.239393      0.011823
H            -0.077973     -0.230876      0.055440
H            -0.411634     -0.088026     -0.190444
H             0.084178     -0.083214     -0.047403
H             0.408158     -0.231599      0.207725
O            -0.203048     -0.235262     -0.110860
O            -0.308480     -0.071536      0.163051
O             0.204122     -0.099865      0.083765
O             0.325466     -0.260284     -0.164563
O            -0.060079     -0.255035      0.155466
O            -0.451727     -0.073614     -0.095663
O             0.055140     -0.077182     -0.146757
O             0.443634     -0.241842      0.106411
Lu            0.139526      0.085016      0.211250
Fe            0.353791      0.255749     -0.026875
Fe           -0.147961      0.247777     -0.226739
Fe           -0.364584      0.100124      0.029621
H            -0.098637      0.082023      0.048788
H            -0.426148      0.233370     -0.208943
H             0.084038      0.255370     -0.055498
H             0.408574      0.085794      0.215534
O            -0.210794      0.080838     -0.100274
O            -0.309528      0.263448      0.165452
O             0.193423      0.271760      0.094756
O             0.293462      0.077038     -0.141333
O            -0.061119      0.083008      0.143780
O            -0.454437      0.248045     -0.110554
O             0.059662      0.255842     -0.156242
O             0.429894      0.101426      0.114588
Fe            0.140300      0.419329      0.236999
Fe            0.345602     -0.417763     -0.024080
Fe           -0.128355     -0.416867     -0.218426
Fe           -0.354079      0.435546      0.020482
H            -0.108106      0.421565      0.056631
H            -0.402836     -0.414883     -0.193217
H             0.088633     -0.409362     -0.045930
H             0.414703      0.403681      0.202063
O            -0.196403      0.418330     -0.102696
O            -0.287223     -0.406983      0.152698
O             0.203363     -0.415879      0.116459
O             0.303823      0.424548     -0.157704
O            -0.064975      0.401886      0.150048
O            -0.445638     -0.406892     -0.095808
O             0.056175     -0.412192     -0.144731
O             0.446242      0.433142      0.108455
Fe            0.157001     -0.248458     -0.271393
Fe            0.364743     -0.085610      0.475878
Fe           -0.166403     -0.092322      0.286052
Fe           -0.351106     -0.250293     -0.464697
H            -0.065670     -0.237239     -0.450057
H            -0.404859     -0.113355      0.292052
H             0.065051     -0.099259      0.448827
H             0.419331     -0.259674     -0.295082
O            -0.190919     -0.260800      0.417995
O            -0.301599     -0.072386     -0.350823
O             0.199700     -0.086639     -0.402641
O             0.312246     -0.235487      0.336062
O            -0.043865     -0.243266     -0.347956
O            -0.447563     -0.102276      0.385674
O             0.041049     -0.084815      0.348503
O             0.437856     -0.252849     -0.399523
Fe            0.149895      0.085131     -0.288133
Fe            0.363436      0.234072      0.482055
Fe           -0.159320      0.253249      0.280865
Fe           -0.358839      0.072419     -0.478832
H            -0.081819      0.106708     -0.440543
H            -0.426123      0.256909      0.294160
H             0.071683      0.266823      0.467827
H             0.433769      0.068982     -0.286725
O            -0.194763      0.086678      0.407467
O            -0.291463      0.231596     -0.348471
O             0.198108      0.247540     -0.410138
O             0.308098      0.081552      0.358109
O            -0.044036      0.072453     -0.349959
O            -0.443147      0.248217      0.397745
O             0.041856      0.256545      0.368152
O             0.461229      0.067580     -0.387232
Fe            0.146485      0.428334     -0.282867
Lu            0.356433     -0.425941      0.460468
Fe           -0.149129     -0.420793      0.291209
Fe           -0.340840      0.413128     -0.459957
H            -0.093245      0.408654     -0.447301
H            -0.404149     -0.419234      0.297458
H             0.095035     -0.424009      0.453288
H             0.417024      0.409933     -0.293489
O            -0.198702      0.422447      0.412652
O            -0.306258     -0.418408     -0.332970
O             0.176049     -0.406829     -0.410788
O             0.295807      0.384231      0.344551
O            -0.059038      0.404133     -0.348695
O            -0.438419     -0.426045      0.395575
O             0.053995     -0.410006      0.355456
O             0.453816      0.412425     -0.391986
data_nwchem_pspw

_audit_creation_date   Thu Aug 22 05:23:34 2024
_audit_creation_method    generated by PSPW module of NWChem


_cell_length_a            10.0667
_cell_length_b             9.1552
_cell_length_c             9.2041
_cell_angle_alpha         90.0000
_cell_angle_beta          90.0000
_cell_angle_gamma         90.0000

_symmetry_space_group_name_H-M     P1  

loop_
_atom_site_type_symbol
_atom_site_fract_x
_atom_site_fract_y
_atom_site_fract_z
Fe            0.149746     -0.245431      0.208115
Fe            0.361486     -0.088224     -0.038102
Fe           -0.147380     -0.084385     -0.230461
Fe           -0.344244     -0.247136      0.012334
H            -0.081539     -0.250488      0.033437
H            -0.412102     -0.082779     -0.204916
H             0.089959     -0.098792     -0.036719
H             0.438153     -0.270812      0.194295
O            -0.181693     -0.252303     -0.101100
O            -0.313330     -0.096144      0.146430
O             0.205754     -0.084306      0.088739
O             0.303914     -0.256556     -0.147985
O            -0.046046     -0.269415      0.131349
O            -0.436523     -0.074978     -0.103330
O             0.047070     -0.096406     -0.131824
O             0.454268     -0.277085      0.091932
Lu            0.153152      0.079438      0.236991
Fe            0.350159      0.235725     -0.016615
Fe           -0.155028      0.238306     -0.232682
Fe           -0.354486      0.092434      0.035615
H            -0.077174      0.082722      0.056298
H            -0.443904      0.246609     -0.198534
H             0.087362      0.271621     -0.055625
H             0.419101      0.055637      0.192883
O            -0.201241      0.078261     -0.095267
O            -0.304986      0.262770      0.155618
O             0.188098      0.251275      0.083722
O             0.317155      0.071089     -0.174874
O            -0.060424      0.085897      0.160366
O            -0.455228      0.256890     -0.095351
O             0.049322      0.256731     -0.154510
O             0.444857      0.066436      0.093253
Fe            0.146032      0.422111      0.227911
Fe            0.354541     -0.430452     -0.027798
Fe           -0.134813     -0.421791     -0.236714
Fe           -0.350520      0.421356      0.017727
H            -0.080353      0.417294      0.049269
H            -0.388748     -0.421987     -0.199302
H             0.084420     -0.418364     -0.041046
H             0.442439      0.414756      0.210324
O            -0.189930      0.394008     -0.089438
O            -0.300264     -0.410570      0.148976
O             0.209660     -0.415074      0.103566
O             0.291773      0.407201     -0.158823
O            -0.050350      0.412510      0.149976
O            -0.434356     -0.407163     -0.106531
O             0.044955     -0.425200     -0.136357
O             0.450754      0.403999      0.106314
Fe            0.141457     -0.249273     -0.269000
Fe            0.354669     -0.075741      0.485910
Fe           -0.152072     -0.088872      0.265352
Fe           -0.350760     -0.242102     -0.480631
H            -0.084353     -0.235022     -0.449359
H            -0.411860     -0.080714      0.305359
H             0.065564     -0.104791      0.461125
H             0.392462     -0.243378     -0.287584
O            -0.202179     -0.258897      0.394316
O            -0.299764     -0.083891     -0.356702
O             0.210532     -0.080050     -0.393412
O             0.312967     -0.235561      0.332803
O            -0.037687     -0.240096     -0.356277
O            -0.445641     -0.082408      0.404169
O             0.037538     -0.091358      0.362210
O             0.443197     -0.239210     -0.378441
Fe            0.146305      0.076714     -0.258776
Fe            0.358677      0.260575      0.494810
Fe           -0.149792      0.248891      0.277486
Fe           -0.367769      0.097820     -0.487771
H            -0.111407      0.057482     -0.461747
H            -0.414271      0.263744      0.289112
H             0.065445      0.250137      0.456034
H             0.428735      0.075026     -0.292888
O            -0.207744      0.085137      0.399196
O            -0.310845      0.255480     -0.353518
O             0.199069      0.232669     -0.399247
O             0.312773      0.096586      0.365612
O            -0.066319      0.072039     -0.367895
O            -0.454559      0.265616      0.386284
O             0.041811      0.265513      0.354758
O             0.462552      0.081492     -0.393636
Fe            0.136575      0.406246     -0.275186
Lu            0.349564     -0.407318      0.478198
Fe           -0.140883     -0.418829      0.273216
Fe           -0.354798      0.423167     -0.488483
H            -0.092048      0.428966     -0.456718
H            -0.401609     -0.400322      0.293897
H             0.079831     -0.391226      0.454418
H             0.403951      0.431850     -0.286123
O            -0.201125      0.414228      0.395641
O            -0.292558     -0.410241     -0.348603
O             0.168967     -0.418168     -0.391561
O             0.293300      0.405442      0.352995
O            -0.066299      0.419392     -0.355916
O            -0.437039     -0.402502      0.393138
O             0.052121     -0.399309      0.351983
O             0.434390      0.414632     -0.384727
data_nwchem_pspw

_audit_creation_date   Thu Aug 22 10:11:50 2024
_audit_creation_method    generated by PSPW module of NWChem


_cell_length_a            10.0667
_cell_length_b             9.1552
_cell_length_c             9.2041
_cell_angle_alpha         90.0000
_cell_angle_beta          90.0000
_cell_angle_gamma         90.0000

_symmetry_space_group_name_H-M     P1  

loop_
_atom_site_type_symbol
_atom_site_fract_x
_atom_site_fract_y
_atom_site_fract_z
Fe            0.145628     -0.237742      0.214624
Fe            0.368081     -0.095207     -0.050830
Fe           -0.151793     -0.078735     -0.218621
Fe           -0.350043     -0.255094      0.021900
H            -0.093352     -0.262654      0.051241
H            -0.400659     -0.095174     -0.206280
H             0.074516     -0.069220     -0.045539
H             0.395341     -0.265980      0.178225
O            -0.197841     -0.240011     -0.097254
O            -0.306077     -0.096054      0.160232
O             0.207971     -0.092835      0.082568
O             0.297128     -0.250109     -0.180166
O            -0.050575     -0.248171      0.146209
O            -0.440889     -0.084322     -0.107828
O             0.042271     -0.081658     -0.143665
O             0.432181     -0.267899      0.078793
Lu            0.154743      0.090638      0.218452
Fe            0.355950      0.263656     -0.036427
Fe           -0.156243      0.242043     -0.229442
Fe           -0.362226      0.091258      0.043472
H            -0.110517      0.088635      0.053051
H            -0.439388      0.245890     -0.204547
H             0.079101      0.253329     -0.063174
H             0.425156      0.089339      0.201603
O            -0.216963      0.090487     -0.085924
O            -0.298317      0.252969      0.164526
O             0.198425      0.277991      0.078667
O             0.290844      0.091308     -0.147312
O            -0.065710      0.085634      0.145873
O            -0.458115      0.283312     -0.108949
O             0.050838      0.263570     -0.162544
O             0.441907      0.086804      0.094699
Fe            0.145351      0.424761      0.216970
Fe            0.339208     -0.414213     -0.031343
Fe           -0.141461     -0.427938     -0.208924
Fe           -0.356022      0.408571      0.037025
H            -0.089942      0.413027      0.046522
H            -0.426042     -0.408827     -0.208814
H             0.089953     -0.416327     -0.047465
H             0.406942      0.412531      0.195396
O            -0.193196      0.397964     -0.084848
O            -0.296680     -0.420028      0.145329
O             0.196815     -0.406759      0.097185
O             0.298425      0.429724     -0.163962
O            -0.055857      0.422087      0.145703
O            -0.459255     -0.415824     -0.109825
O             0.054455     -0.399948     -0.144885
O             0.448190      0.433625      0.102692
Fe            0.138137     -0.234498     -0.277643
Fe            0.354320     -0.088858      0.486725
Fe           -0.148572     -0.092619      0.280989
Fe           -0.341281     -0.257677     -0.453895
H            -0.102249     -0.258343     -0.443736
H            -0.400146     -0.076904      0.323853
H             0.092548     -0.100073      0.459389
H             0.402313     -0.254487     -0.301247
O            -0.199420     -0.257013      0.412954
O            -0.303606     -0.089607     -0.333973
O             0.190662     -0.070533     -0.401993
O             0.303457     -0.248433      0.336211
O            -0.057489     -0.245170     -0.351454
O            -0.440727     -0.080169      0.420125
O             0.054232     -0.102375      0.361049
O             0.445467     -0.244622     -0.397325
Fe            0.139734      0.101448     -0.282929
Fe            0.357821      0.241606      0.476135
Fe           -0.143206      0.244601      0.277999
Fe           -0.362360      0.081836     -0.461178
H            -0.077288      0.053458     -0.448776
H            -0.415250      0.246173      0.306904
H             0.079769      0.248097      0.458220
H             0.403812      0.086094     -0.283716
O            -0.203734      0.089655      0.409560
O            -0.312530      0.251169     -0.341112
O             0.189279      0.253646     -0.415340
O             0.334963      0.079445      0.342841
O            -0.050490      0.077100     -0.349737
O            -0.438816      0.252149      0.407863
O             0.038795      0.234439      0.362017
O             0.447097      0.082537     -0.379055
Fe            0.136345      0.432115     -0.283156
Lu            0.357437     -0.433404      0.473456
Fe           -0.137263     -0.420318      0.283159
Fe           -0.347603      0.417672     -0.476831
H            -0.076674      0.431138     -0.462850
H            -0.406657     -0.423210      0.297456
H             0.103295     -0.400002      0.436641
H             0.434950      0.431417     -0.286793
O            -0.190192      0.417641      0.400041
O            -0.302107     -0.418937     -0.329343
O             0.182834     -0.410827     -0.410562
O             0.290259      0.389901      0.337857
O            -0.055353      0.421619     -0.363359
O            -0.429144     -0.415234      0.400869
O             0.061362     -0.426630      0.347470
O             0.459524      0.408853     -0.385831
data_nwchem_pspw

_audit_creation_date   Thu Aug 22 16:07:22 2024
_audit_creation_method    generated by PSPW module of NWChem


_cell_length_a            10.0667
_cell_length_b             9.1552
_cell_length_c             9.2041
_cell_angle_alpha         90.0000
_cell_angle_beta          90.0000
_cell_angle_gamma         90.0000

_symmetry_space_group_name_H-M     P1  

loop_
_atom_site_type_symbol
_atom_site_fract_x
_atom_site_fract_y
_atom_site_fract_z
Fe            0.141341     -0.237461      0.230479
Fe            0.364284     -0.083845     -0.037692
Fe           -0.146730     -0.085656     -0.236654
Fe           -0.342393     -0.255098      0.002331
H            -0.075640     -0.262368      0.063020
H            -0.413759     -0.105806     -0.223676
H             0.080482     -0.104995     -0.052778
H             0.421783     -0.248979      0.195039
O            -0.180071     -0.270546     -0.085642
O            -0.322327     -0.083438      0.152536
O             0.202946     -0.097756      0.087102
O             0.289645     -0.259502     -0.132675
O            -0.051473     -0.227200      0.159563
O            -0.435006     -0.099085     -0.119663
O             0.046018     -0.086837     -0.151654
O             0.445381     -0.247933      0.093790
Lu            0.133578      0.074433      0.230635
Fe            0.344920      0.246003     -0.016713
Fe           -0.135886      0.236023     -0.235263
Fe           -0.359502      0.080747      0.004770
H            -0.087787      0.080111      0.044170
H            -0.440855      0.275811     -0.204460
H             0.082843      0.244531     -0.047115
H             0.431117      0.072779      0.194190
O            -0.192876      0.073194     -0.098041
O            -0.297329      0.251533      0.140617
O             0.183900      0.255670      0.092212
O             0.308819      0.074361     -0.151371
O            -0.065631      0.079557      0.146207
O            -0.454343      0.243907     -0.105729
O             0.054337      0.243099     -0.149296
O             0.439130      0.092302      0.090355
Fe            0.143892      0.412210      0.233695
Fe            0.354311     -0.424562      0.007239
Fe           -0.144619     -0.434507     -0.212356
Fe           -0.351042      0.414773      0.015251
H            -0.066791      0.416374      0.044830
H            -0.436589     -0.435076     -0.206157
H             0.096876     -0.436091     -0.053614
H             0.426599      0.419106      0.202744
O            -0.197160      0.396980     -0.092617
O            -0.290867     -0.411135      0.146384
O             0.193748     -0.411567      0.117541
O             0.296709      0.410815     -0.129552
O            -0.047264      0.423489      0.146711
O            -0.453745     -0.422629     -0.104194
O             0.060650     -0.417728     -0.148902
O             0.465208      0.430544      0.106625
Fe            0.149485     -0.241295     -0.263107
Fe            0.359355     -0.072424      0.486164
Fe           -0.177243     -0.082535      0.273416
Fe           -0.348048     -0.253212     -0.472136
H            -0.081982     -0.256014     -0.451262
H            -0.417899     -0.083547      0.311874
H             0.047724     -0.073828      0.469685
H             0.435117     -0.268211     -0.289224
O            -0.205020     -0.257345      0.388418
O            -0.300220     -0.090864     -0.350622
O             0.207640     -0.082797     -0.394375
O             0.316499     -0.217967      0.342337
O            -0.045794     -0.250034     -0.355107
O            -0.445603     -0.084267      0.411866
O             0.025695     -0.068551      0.369062
O             0.450427     -0.240315     -0.387842
Fe            0.156054      0.078521     -0.266479
Fe            0.356502      0.253357      0.471517
Fe           -0.159478      0.258380      0.268662
Fe           -0.347099      0.088951     -0.465706
H            -0.084971      0.056988     -0.450418
H            -0.441883      0.250432      0.298702
H             0.059370      0.257069      0.461893
H             0.420276      0.087156     -0.295264
O            -0.210986      0.093046      0.392081
O            -0.299874      0.256873     -0.335040
O             0.198912      0.254404     -0.402340
O             0.311502      0.090336      0.349143
O            -0.047109      0.074958     -0.358208
O            -0.446309      0.254859      0.402317
O             0.037040      0.248922      0.360799
O             0.467462      0.085437     -0.387231
Fe            0.154089      0.421298     -0.270341
Lu            0.350956     -0.409538      0.457682
Fe           -0.141140     -0.415269      0.272265
Fe           -0.339623      0.426369     -0.475557
H            -0.075342      0.404992     -0.444954
H            -0.382901     -0.394931      0.304415
H             0.090607     -0.433156      0.466230
H             0.434765      0.432725     -0.289683
O            -0.199098      0.427092      0.399549
O            -0.289818     -0.415636     -0.347221
O             0.182384     -0.415906     -0.397315
O             0.315975      0.408716      0.333613
O            -0.049934      0.412956     -0.345589
O            -0.436519     -0.402165      0.393142
O             0.063430     -0.411432      0.366838
O             0.457523      0.430946     -0.390609
data_nwchem_pspw

_audit_creation_date   Fri Aug 23 02:10:49 2024
_audit_creation_method    generated by PSPW module of NWChem


_cell_length_a            10.0667
_cell_length_b             9.1552
_cell_length_c             9.2041
_cell_angle_alpha         90.0000
_cell_angle_beta          90.0000
_cell_angle_gamma         90.0000

_symmetry_space_group_name_H-M     P1  

loop_
_atom_site_type_symbol
_atom_site_fract_x
_atom_site_fract_y
_atom_site_fract_z
Fe            0.153688     -0.235285      0.232217
Fe            0.364607     -0.090192     -0.040759
Fe           -0.154419     -0.074081     -0.228796
Fe           -0.358928     -0.247020      0.035289
H            -0.084071     -0.245496      0.041254
H            -0.388609     -0.067812     -0.207583
H             0.082831     -0.088021     -0.050514
H             0.418357     -0.229072      0.200750
O            -0.198268     -0.252659     -0.103852
O            -0.314590     -0.064357      0.148912
O             0.209695     -0.098044      0.074237
O             0.305132     -0.251719     -0.169732
O            -0.057927     -0.241715      0.143209
O            -0.439482     -0.090285     -0.121858
O             0.043756     -0.076355     -0.146508
O             0.445406     -0.249306      0.099572
Lu            0.160981      0.081139      0.215445
Fe            0.353556      0.262507     -0.040093
Fe           -0.142162      0.251933     -0.211816
Fe           -0.361115      0.099073      0.019402
H            -0.096945      0.073061      0.069975
H            -0.407749      0.250971     -0.210474
H             0.086949      0.257078     -0.031804
H             0.429822      0.087596      0.195859
O            -0.209816      0.088610     -0.109897
O            -0.299677      0.248370      0.162895
O             0.201724      0.257946      0.090788
O             0.297064      0.080936     -0.154028
O            -0.051877      0.070190      0.162109
O            -0.450348      0.240825     -0.114959
O             0.054110      0.262487     -0.130591
O             0.448280      0.084507      0.091199
Fe            0.152490      0.419556      0.218193
Fe            0.345116     -0.410355     -0.028813
Fe           -0.155732     -0.422832     -0.215452
Fe           -0.354628      0.426983      0.035281
H            -0.074595      0.426753      0.046167
H            -0.421023     -0.409028     -0.202939
H             0.067530     -0.440047     -0.043786
H             0.417408      0.411626      0.190993
O            -0.202008      0.424135     -0.088104
O            -0.294051     -0.415379      0.146217
O             0.196658     -0.401752      0.095852
O             0.295145      0.424230     -0.159992
O            -0.046375      0.423167      0.146858
O            -0.456376     -0.399941     -0.104467
O             0.043741     -0.419764     -0.142192
O             0.448007      0.416607      0.089907
Fe            0.126640     -0.254257     -0.265295
Fe            0.358009     -0.081023      0.492502
Fe           -0.157371     -0.088292      0.282483
Fe           -0.354165     -0.256066     -0.483224
H            -0.086919     -0.289390     -0.441526
H            -0.412027     -0.092440      0.286345
H             0.095553     -0.085705      0.463093
H             0.429696     -0.242339     -0.306818
O            -0.196683     -0.259055      0.395835
O            -0.287388     -0.079708     -0.361732
O             0.185717     -0.087807     -0.399944
O             0.312401     -0.237352      0.343807
O            -0.071178     -0.260312     -0.343638
O            -0.430814     -0.101335      0.390638
O             0.052455     -0.080936      0.367945
O             0.453271     -0.240479     -0.408726
Fe            0.149033      0.077993     -0.278163
Fe            0.362242      0.236199      0.488895
Fe           -0.141377      0.243864      0.270415
Fe           -0.358055      0.088164     -0.473509
H            -0.086316      0.099372     -0.447309
H            -0.425869      0.238686      0.316529
H             0.085550      0.264913      0.452562
H             0.424766      0.065945     -0.274848
O            -0.208394      0.087650      0.404684
O            -0.298601      0.256304     -0.342651
O             0.192562      0.240286     -0.416156
O             0.328257      0.069101      0.347605
O            -0.053055      0.094590     -0.348123
O            -0.452859      0.250200      0.416540
O             0.053941      0.263020      0.352028
O             0.442771      0.074046     -0.378625
Fe            0.135776      0.407235     -0.270319
Lu            0.345270     -0.424230      0.481098
Fe           -0.135056     -0.413370      0.260008
Fe           -0.346356      0.420683     -0.471676
H            -0.083587      0.411765     -0.446084
H            -0.386454     -0.415770      0.302406
H             0.082999     -0.431323      0.449183
H             0.419205      0.428980     -0.287242
O            -0.196633      0.410666      0.400817
O            -0.307514     -0.413571     -0.340824
O             0.162378     -0.429920     -0.403151
O             0.313652      0.400592      0.338224
O            -0.065725      0.419707     -0.343920
O            -0.436118     -0.424817      0.392118
O             0.067525     -0.413242      0.345636
O             0.456595      0.412523     -0.383366
data_nwchem_pspw

_audit_creation_date   Fri Aug 23 07:50:32 2024
_audit_creation_method    generated by PSPW module of NWChem


_cell_length_a            10.0667
_cell_length_b             9.1552
_cell_length_c             9.2041
_cell_angle_alpha         90.0000
_cell_angle_beta          90.0000
_cell_angle_gamma         90.0000

_symmetry_space_group_name_H-M     P1  

loop_
_atom_site_type_symbol
_atom_site_fract_x
_atom_site_fract_y
_atom_site_fract_z
Fe            0.139884     -0.240245      0.221740
Fe            0.363401     -0.087786     -0.039838
Fe           -0.148985     -0.075034     -0.228665
Fe           -0.345107     -0.253204      0.030302
H            -0.077911     -0.214995      0.046241
H            -0.408955     -0.098426     -0.204723
H             0.090905     -0.093453     -0.045062
H             0.401584     -0.224331      0.180365
O            -0.194697     -0.240480     -0.095876
O            -0.314020     -0.095426      0.158971
O             0.204314     -0.086570      0.097751
O             0.299533     -0.244230     -0.166449
O            -0.058004     -0.230428      0.146929
O            -0.436618     -0.078561     -0.106835
O             0.045483     -0.084592     -0.139629
O             0.443004     -0.258580      0.091209
Lu            0.142813      0.091981      0.236461
Fe            0.355089      0.244195     -0.031409
Fe           -0.136276      0.262050     -0.217924
Fe           -0.350735      0.073773      0.009385
H            -0.109377      0.092326      0.049537
H            -0.412227      0.249911     -0.203572
H             0.081193      0.259469     -0.041524
H             0.414406      0.094151      0.207655
O            -0.186574      0.091376     -0.097050
O            -0.311059      0.245525      0.152454
O             0.199219      0.254253      0.097286
O             0.303608      0.087297     -0.161732
O            -0.085766      0.067733      0.150681
O            -0.455950      0.248160     -0.106818
O             0.060171      0.238818     -0.142226
O             0.436434      0.077537      0.107017
Fe            0.149142      0.427143      0.212051
Fe            0.343609     -0.427516     -0.045197
Fe           -0.147189     -0.397395     -0.224777
Fe           -0.355214      0.415663      0.025821
H            -0.086393      0.410266      0.036372
H            -0.414165     -0.415909     -0.186468
H             0.084350     -0.427443     -0.049639
H             0.413584      0.414361      0.189395
O            -0.198553      0.419871     -0.096153
O            -0.294888     -0.427901      0.153624
O             0.197605     -0.405936      0.091353
O             0.293715      0.409432     -0.161170
O            -0.046658      0.406828      0.133955
O            -0.451981     -0.400190     -0.091767
O             0.047977     -0.417058     -0.146840
O             0.437779      0.416082      0.087179
Fe            0.132575     -0.250629     -0.267870
Fe            0.355394     -0.080029      0.484432
Fe           -0.162759     -0.098143      0.285306
Fe           -0.346957     -0.251080     -0.474063
H            -0.065827     -0.264367     -0.457247
H            -0.420724     -0.077829      0.294996
H             0.083456     -0.090508      0.460993
H             0.414064     -0.251148     -0.294006
O            -0.195144     -0.272641      0.396738
O            -0.309320     -0.088448     -0.344901
O             0.189019     -0.074137     -0.405425
O             0.293734     -0.223177      0.337792
O            -0.068186     -0.238062     -0.356147
O            -0.434427     -0.087956      0.398572
O             0.031712     -0.113942      0.373914
O             0.442147     -0.246842     -0.394754
Fe            0.143487      0.074092     -0.261872
Fe            0.355790      0.247698      0.486667
Fe           -0.154110      0.242919      0.292816
Fe           -0.362314      0.080496     -0.470832
H            -0.063809      0.075574     -0.438370
H            -0.415972      0.251448      0.309547
H             0.057213      0.297082      0.455845
H             0.418948      0.062180     -0.287920
O            -0.193948      0.072895      0.410759
O            -0.293998      0.249308     -0.332609
O             0.194250      0.246471     -0.385190
O             0.314764      0.084326      0.353384
O            -0.039179      0.087302     -0.337715
O            -0.450402      0.263771      0.407708
O             0.048081      0.262376      0.358464
O             0.451932      0.092004     -0.382370
Fe            0.132968      0.418448     -0.282970
Lu            0.366071     -0.412715      0.458528
Fe           -0.137009     -0.441266      0.265194
Fe           -0.345345      0.412354     -0.466932
H            -0.074703      0.410131     -0.454177
H            -0.394174     -0.430404      0.294904
H             0.094063     -0.417295      0.451436
H             0.413100      0.419234     -0.296896
O            -0.182147      0.419195      0.407967
O            -0.289981     -0.418661     -0.350371
O             0.191915     -0.417120     -0.404285
O             0.305196      0.399616      0.337919
O            -0.046791      0.414657     -0.350720
O            -0.435130     -0.426147      0.390835
O             0.057651     -0.416082      0.348785
O             0.456439      0.425471     -0.391979
data_nwchem_pspw

_audit_creation_date   Fri Aug 23 18:10:08 2024
_audit_creation_method    generated by PSPW module of NWChem


_cell_length_a            10.0667
_cell_length_b             9.1552
_cell_length_c             9.2041
_cell_angle_alpha         90.0000
_cell_angle_beta          90.0000
_cell_angle_gamma         90.0000

_symmetry_space_group_name_H-M     P1  

loop_
_atom_site_type_symbol
_atom_site_fract_x
_atom_site_fract_y
_atom_site_fract_z
Fe            0.138741     -0.246798      0.233125
Fe            0.367101     -0.088096     -0.034773
Fe           -0.143370     -0.095755     -0.229642
Fe           -0.347266     -0.252279      0.021055
H            -0.091981     -0.267329      0.041596
H            -0.414162     -0.102480     -0.209255
H             0.086507     -0.110991     -0.045220
H             0.411691     -0.228622      0.192808
O            -0.198564     -0.253332     -0.107850
O            -0.294311     -0.077133      0.122625
O             0.209867     -0.100435      0.099627
O             0.297217     -0.261801     -0.146389
O            -0.053922     -0.252135      0.136340
O            -0.437956     -0.081474     -0.108878
O             0.052464     -0.087114     -0.140171
O             0.455696     -0.249570      0.101543
Lu            0.162442      0.074960      0.212218
Fe            0.358663      0.255915     -0.026194
Fe           -0.134944      0.249146     -0.242027
Fe           -0.347797      0.098355     -0.007027
H            -0.099509      0.056635      0.033362
H            -0.414976      0.265793     -0.228423
H             0.061950      0.275393     -0.038539
H             0.443996      0.080469      0.207159
O            -0.189756      0.089337     -0.115219
O            -0.300167      0.259082      0.140791
O             0.190926      0.266705      0.086198
O             0.309557      0.089451     -0.135637
O            -0.059221      0.071651      0.127117
O            -0.452508      0.245444     -0.131952
O             0.048966      0.267672     -0.141606
O             0.456376      0.082760      0.103247
Fe            0.143602      0.413547      0.228857
Fe            0.343756     -0.411519     -0.004322
Fe           -0.150214     -0.416893     -0.228737
Fe           -0.358033      0.420648      0.008733
H            -0.073950      0.420945      0.051416
H            -0.410342     -0.434994     -0.213232
H             0.050817     -0.406068     -0.034652
H             0.436101      0.402222      0.215089
O            -0.191061      0.411135     -0.092258
O            -0.302648     -0.420072      0.155662
O             0.199070     -0.413966      0.119771
O             0.305364      0.411658     -0.150465
O            -0.050257      0.416896      0.153995
O            -0.438142     -0.415679     -0.114121
O             0.042125     -0.404363     -0.137299
O             0.446346      0.404589      0.111075
Fe            0.135966     -0.247519     -0.253502
Fe            0.357248     -0.079337      0.485521
Fe           -0.160794     -0.075518      0.265986
Fe           -0.356845     -0.246337     -0.478234
H            -0.080913     -0.255294     -0.461960
H            -0.412601     -0.057443      0.291935
H             0.069408     -0.090415      0.458168
H             0.439401     -0.256275     -0.298270
O            -0.194549     -0.241294      0.409698
O            -0.302453     -0.089884     -0.362471
O             0.207078     -0.085029     -0.380455
O             0.306487     -0.229239      0.359985
O            -0.047094     -0.245565     -0.362134
O            -0.449119     -0.073523      0.387004
O             0.050090     -0.078522      0.356900
O             0.450396     -0.253516     -0.401575
Fe            0.154740      0.079093     -0.260167
Fe            0.351380      0.245005      0.493819
Fe           -0.153142      0.251691      0.273003
Fe           -0.358788      0.089540     -0.486158
H            -0.078195      0.039524     -0.432246
H            -0.416829      0.276920      0.298933
H             0.078555      0.273835      0.456028
H             0.460444      0.074902     -0.280680
O            -0.200771      0.087257      0.407289
O            -0.297228      0.256720     -0.347822
O             0.201574      0.244507     -0.395126
O             0.318882      0.088739      0.355625
O            -0.038725      0.078815     -0.346628
O            -0.442860      0.261245      0.398088
O             0.046105      0.260547      0.357164
O             0.450927      0.071393     -0.383426
Fe            0.144565      0.410341     -0.259622
Lu            0.339319     -0.419440      0.478823
Fe           -0.153085     -0.409207      0.284825
Fe           -0.352189      0.418300     -0.469011
H            -0.087704      0.427506     -0.444422
H            -0.417928     -0.445921      0.285719
H             0.043518     -0.414455      0.466820
H             0.387427      0.418301     -0.291102
O            -0.196770      0.421188      0.401829
O            -0.309584     -0.416839     -0.347471
O             0.174895     -0.427062     -0.375351
O             0.293032      0.395090      0.351790
O            -0.048573      0.431460     -0.348967
O            -0.451663     -0.431511      0.382662
O             0.048143     -0.403898      0.362986
O             0.443131      0.407292     -0.380194
data_nwchem_pspw

_audit_creation_date   Sat Aug 24 04:44:43 2024
_audit_creation_method    generated by PSPW module of NWChem


_cell_length_a            10.0667
_cell_length_b             9.1552
_cell_length_c             9.2041
_cell_angle_alpha         90.0000
_cell_angle_beta          90.0000
_cell_angle_gamma         90.0000

_symmetry_space_group_name_H-M     P1  

loop_
_atom_site_type_symbol
_atom_site_fract_x
_atom_site_fract_y
_atom_site_fract_z
Fe            0.150017     -0.236866      0.218805
Fe            0.359196     -0.076797     -0.047754
Fe           -0.143657     -0.094754     -0.203947
Fe           -0.356168     -0.254634      0.026000
H            -0.110546     -0.246921      0.056225
H            -0.399082     -0.096971     -0.203576
H             0.091708     -0.095967     -0.048307
H             0.412173     -0.234792      0.169632
O            -0.196192     -0.266143     -0.086777
O            -0.319138     -0.077565      0.154583
O             0.204966     -0.090262      0.082352
O             0.303665     -0.240483     -0.173517
O            -0.062055     -0.242310      0.148250
O            -0.441366     -0.089247     -0.107243
O             0.058208     -0.079588     -0.145953
O             0.446464     -0.244183      0.071651
Lu            0.139446      0.078006      0.244401
Fe            0.343665      0.246792     -0.038860
Fe           -0.135512      0.225474     -0.223477
Fe           -0.360714      0.083102      0.020127
H            -0.092071      0.087906      0.046149
H            -0.406958      0.268399     -0.207308
H             0.084433      0.223673     -0.042098
H             0.422967      0.092165      0.195162
O            -0.191604      0.079467     -0.079750
O            -0.315025      0.256945      0.152499
O             0.200152      0.253582      0.094538
O             0.291099      0.086276     -0.164039
O            -0.059229      0.096414      0.146311
O            -0.449016      0.257338     -0.112928
O             0.047672      0.235645     -0.138699
O             0.453073      0.086580      0.092494
Fe            0.142517      0.425147      0.221542
Fe            0.345751     -0.414883     -0.030553
Fe           -0.143024     -0.426568     -0.208193
Fe           -0.359246      0.415307      0.019715
H            -0.087517      0.417378      0.043126
H            -0.422877     -0.430412     -0.207796
H             0.073566     -0.391339     -0.048895
H             0.399807      0.402567      0.189029
O            -0.193686      0.405826     -0.103975
O            -0.302607     -0.424882      0.152272
O             0.185980     -0.412740      0.084155
O             0.305795      0.414623     -0.165523
O            -0.063797      0.425213      0.145883
O            -0.451142     -0.419267     -0.106639
O             0.048559     -0.403982     -0.150717
O             0.439000      0.427133      0.094024
Fe            0.141909     -0.230148     -0.292193
Fe            0.363921     -0.080062      0.460939
Fe           -0.162373     -0.080260      0.272360
Fe           -0.341953     -0.252521     -0.467679
H            -0.094063     -0.228691     -0.451153
H            -0.409576     -0.059982      0.306123
H             0.098228     -0.102740      0.451900
H             0.419049     -0.241364     -0.306481
O            -0.194465     -0.235999      0.413416
O            -0.298449     -0.088691     -0.324969
O             0.198724     -0.074080     -0.424282
O             0.318896     -0.239563      0.313935
O            -0.062665     -0.253279     -0.353064
O            -0.430842     -0.079297      0.408422
O             0.050634     -0.101131      0.356421
O             0.454049     -0.242502     -0.405924
Fe            0.144592      0.089725     -0.286445
Fe            0.358989      0.246843      0.468108
Fe           -0.158961      0.256717      0.272436
Fe           -0.349669      0.086583     -0.458185
H            -0.058826      0.052417     -0.453929
H            -0.423993      0.283776      0.311480
H             0.034714      0.295492      0.464744
H             0.412576      0.104448     -0.299055
O            -0.199654      0.083976      0.406495
O            -0.296228      0.242476     -0.330627
O             0.213315      0.252707     -0.403161
O             0.331693      0.082350      0.330290
O            -0.043440      0.056183     -0.348567
O            -0.438455      0.256892      0.412364
O             0.039696      0.264745      0.366077
O             0.455786      0.097775     -0.393156
Fe            0.143004      0.432509     -0.278608
Lu            0.363378     -0.421522      0.466505
Fe           -0.147327     -0.413995      0.291177
Fe           -0.356703      0.405363     -0.447504
H            -0.116129      0.423261     -0.432246
H            -0.400309     -0.425123      0.295716
H             0.078929     -0.411843      0.453444
H             0.406799      0.419683     -0.290482
O            -0.204858      0.422169      0.408801
O            -0.303488     -0.410564     -0.321965
O             0.179966     -0.413116     -0.418458
O             0.305975      0.404856      0.335362
O            -0.049364      0.404217     -0.355453
O            -0.417109     -0.431063      0.399390
O             0.054368     -0.415860      0.350141
O             0.452171      0.415019     -0.385890
data_nwchem_pspw

_audit_creation_date   Sat Aug 24 09:52:17 2024
_audit_creation_method    generated by PSPW module of NWChem


_cell_length_a            10.0667
_cell_length_b             9.1552
_cell_length_c             9.2041
_cell_angle_alpha         90.0000
_cell_angle_beta          90.0000
_cell_angle_gamma         90.0000

_symmetry_space_group_name_H-M     P1  

loop_
_atom_site_type_symbol
_atom_site_fract_x
_atom_site_fract_y
_atom_site_fract_z
Fe            0.150425     -0.244271      0.240470
Fe            0.365860     -0.093421     -0.040430
Fe           -0.148673     -0.082092     -0.219002
Fe           -0.354166     -0.263929      0.016148
H            -0.058268     -0.266048      0.064542
H            -0.418063     -0.110546     -0.208382
H             0.098484     -0.067679     -0.038080
H             0.434432     -0.276973      0.214576
O            -0.191497     -0.265155     -0.099903
O            -0.306615     -0.098545      0.147657
O             0.207539     -0.093907      0.080773
O             0.306250     -0.256163     -0.150470
O            -0.036496     -0.265835      0.167348
O            -0.449278     -0.099020     -0.107962
O             0.049281     -0.074906     -0.131418
O             0.453981     -0.273543      0.112693
Lu            0.159496      0.088018      0.217280
Fe            0.356098      0.247236     -0.031771
Fe           -0.153549      0.263306     -0.237169
Fe           -0.349296      0.088416      0.044667
H            -0.082145      0.070152      0.031863
H            -0.399072      0.247561     -0.194052
H             0.077311      0.260465     -0.030621
H             0.437127      0.085801      0.209268
O            -0.208277      0.097534     -0.098269
O            -0.306776      0.258543      0.165401
O             0.201361      0.258913      0.090765
O             0.309362      0.079914     -0.152442
O            -0.058381      0.073303      0.133655
O            -0.445326      0.259570     -0.102461
O             0.044160      0.255232     -0.128630
O             0.453053      0.079762      0.105434
Fe            0.153134      0.404905      0.218207
Fe            0.362650     -0.423869     -0.015049
Fe           -0.144724     -0.424830     -0.239610
Fe           -0.348931      0.426111      0.014915
H            -0.069708      0.418155      0.045128
H            -0.414683     -0.429041     -0.213870
H             0.065347     -0.398657     -0.034208
H             0.422777      0.407433      0.195486
O            -0.184672      0.420086     -0.091240
O            -0.268836     -0.427520      0.134517
O             0.218106     -0.416119      0.121448
O             0.308883      0.415205     -0.148449
O            -0.037750      0.416193      0.145139
O            -0.443014     -0.422140     -0.113613
O             0.051120     -0.418092     -0.135864
O             0.452298      0.419596      0.095831
Fe            0.137587     -0.244442     -0.272372
Fe            0.351752     -0.075953      0.495118
Fe           -0.146027     -0.090272      0.259161
Fe           -0.360591     -0.247004     -0.491035
H            -0.076159     -0.233906     -0.454818
H            -0.448593     -0.071735      0.288715
H             0.082159     -0.096292      0.443520
H             0.421415     -0.277555     -0.278459
O            -0.194850     -0.249910      0.395796
O            -0.305137     -0.090950     -0.346241
O             0.191557     -0.072484     -0.401742
O             0.311282     -0.224221      0.354006
O            -0.067564     -0.250935     -0.352258
O            -0.442282     -0.065729      0.393040
O             0.047005     -0.073635      0.349243
O             0.452157     -0.256309     -0.377211
Fe            0.130787      0.090609     -0.252652
Fe            0.327353      0.253244     -0.498719
Fe           -0.145248      0.245193      0.265295
Fe           -0.339436      0.086769     -0.486500
H            -0.077838      0.079537     -0.451329
H            -0.397388      0.264064      0.301463
H             0.059354      0.259276      0.464670
H             0.440572      0.096341     -0.282652
O            -0.186603      0.072434      0.394090
O            -0.308750      0.262671     -0.345642
O             0.164394      0.253061     -0.387223
O             0.317111      0.089594      0.361777
O            -0.070075      0.085824     -0.347570
O            -0.439108      0.248145      0.398824
O             0.052273      0.262270      0.361402
O             0.446762      0.103957     -0.385383
Fe            0.139083      0.419879     -0.267345
Lu            0.340516     -0.418587      0.473077
Fe           -0.142422     -0.418186      0.284536
Fe           -0.364613      0.415060     -0.477982
H            -0.107375      0.409392     -0.465017
H            -0.391946     -0.423213      0.290137
H             0.071283     -0.443461      0.460519
H             0.415802      0.406993     -0.294582
O            -0.199259      0.410287      0.406841
O            -0.308240     -0.415249     -0.380186
O             0.174485     -0.407419     -0.388306
O             0.316614      0.401683      0.344591
O            -0.059897      0.422337     -0.368384
O            -0.446262     -0.422327      0.377198
O             0.060779     -0.423013      0.358921
O             0.444628      0.400983     -0.394664
data_nwchem_pspw

_audit_creation_date   Sat Aug 24 14:26:30 2024
_audit_creation_method    generated by PSPW module of NWChem


_cell_length_a            10.0667
_cell_length_b             9.1552
_cell_length_c             9.2041
_cell_angle_alpha         90.0000
_cell_angle_beta          90.0000
_cell_angle_gamma         90.0000

_symmetry_space_group_name_H-M     P1  

loop_
_atom_site_type_symbol
_atom_site_fract_x
_atom_site_fract_y
_atom_site_fract_z
Fe            0.145121     -0.245463      0.233643
Fe            0.349414     -0.090597     -0.042249
Fe           -0.141279     -0.069914     -0.209341
Fe           -0.349219     -0.239130      0.015229
H            -0.085901     -0.256812      0.053587
H            -0.419172     -0.097170     -0.212933
H             0.101328     -0.086684     -0.050233
H             0.409806     -0.265673      0.180967
O            -0.196482     -0.253072     -0.093342
O            -0.316744     -0.074449      0.151467
O             0.185855     -0.090612      0.089141
O             0.311305     -0.261677     -0.163631
O            -0.057632     -0.250749      0.155125
O            -0.449490     -0.069284     -0.116959
O             0.062891     -0.092076     -0.151965
O             0.452770     -0.250325      0.092042
Lu            0.128357      0.085436      0.234985
Fe            0.358033      0.242963     -0.038802
Fe           -0.143150      0.249141     -0.223979
Fe           -0.359295      0.096197      0.033181
H            -0.097176      0.097816      0.050551
H            -0.392692      0.286530     -0.200477
H             0.098725      0.243379     -0.049254
H             0.415881      0.090009      0.199790
O            -0.198004      0.094436     -0.093302
O            -0.306027      0.264245      0.154958
O             0.204696      0.266388      0.084282
O             0.294420      0.079406     -0.157705
O            -0.073751      0.085671      0.152601
O            -0.432124      0.264771     -0.106980
O             0.056280      0.229453     -0.143377
O             0.449270      0.076638      0.102067
Fe            0.145306      0.413755      0.210348
Fe            0.351361     -0.417528     -0.020553
Fe           -0.138340     -0.404104     -0.225134
Fe           -0.351282      0.429655      0.032727
H            -0.099492      0.446050      0.055078
H            -0.406143     -0.420998     -0.211838
H             0.083417     -0.420356     -0.050639
H             0.397870      0.422728      0.185896
O            -0.196772      0.428033     -0.102509
O            -0.293749     -0.409857      0.152910
O             0.196873     -0.407103      0.093190
O             0.298461      0.414112     -0.160608
O            -0.050817      0.420390      0.142670
O            -0.442053     -0.414075     -0.112227
O             0.062678     -0.422502     -0.154338
O             0.447946      0.415254      0.096011
Fe            0.147593     -0.261178     -0.276266
Fe            0.357746     -0.086823      0.483155
Fe           -0.162414     -0.094908      0.266028
Fe           -0.346290     -0.248630     -0.461742
H            -0.086249     -0.235866     -0.448745
H            -0.414327     -0.081333      0.303841
H             0.079542     -0.099180      0.465335
H             0.416548     -0.267059     -0.290230
O            -0.199138     -0.246714      0.401582
O            -0.298066     -0.078441     -0.339489
O             0.197666     -0.097923     -0.401602
O             0.323799     -0.242773      0.342036
O            -0.051484     -0.241090     -0.350282
O            -0.444473     -0.078558      0.404642
O             0.047388     -0.083623      0.365136
O             0.464831     -0.253077     -0.382643
Fe            0.130434      0.063908     -0.281537
Fe            0.359931      0.238607      0.482187
Fe           -0.151680      0.245971      0.272431
Fe           -0.352475      0.083708     -0.467732
H            -0.101163      0.080763     -0.453253
H            -0.414001      0.262361      0.311154
H             0.077877      0.274546      0.453609
H             0.409562      0.067020     -0.288570
O            -0.208632      0.083414      0.397275
O            -0.280654      0.257383     -0.362124
O             0.201098      0.244536     -0.402228
O             0.308556      0.074185      0.356973
O            -0.057553      0.094711     -0.358299
O            -0.438494      0.257805      0.412896
O             0.045491      0.270406      0.355040
O             0.449704      0.083501     -0.383577
Fe            0.147866      0.405188     -0.282563
Lu            0.365135     -0.415978      0.462107
Fe           -0.144487     -0.423207      0.291984
Fe           -0.357237      0.426951     -0.469071
H            -0.089883      0.435486     -0.457994
H            -0.403513     -0.417609      0.281881
H             0.087179     -0.429282      0.456648
H             0.408879      0.406798     -0.295122
O            -0.190806      0.416766      0.408734
O            -0.302062     -0.418206     -0.333882
O             0.193391     -0.417699     -0.410895
O             0.298644      0.389622      0.338630
O            -0.048310      0.422438     -0.363555
O            -0.440459     -0.408733      0.379165
O             0.054747     -0.431804      0.356173
O             0.454267      0.391442     -0.388372
data_nwchem_pspw

_audit_creation_date   Sat Aug 24 19:29:59 2024
_audit_creation_method    generated by PSPW module of NWChem


_cell_length_a            10.0667
_cell_length_b             9.1552
_cell_length_c             9.2041
_cell_angle_alpha         90.0000
_cell_angle_beta          90.0000
_cell_angle_gamma         90.0000

_symmetry_space_group_name_H-M     P1  

loop_
_atom_site_type_symbol
_atom_site_fract_x
_atom_site_fract_y
_atom_site_fract_z
Fe            0.128948     -0.237838      0.225840
Fe            0.353786     -0.076414     -0.043884
Fe           -0.142679     -0.084316     -0.226377
Fe           -0.365360     -0.247347      0.017610
H            -0.073033     -0.244789      0.059052
H            -0.408258     -0.068063     -0.221479
H             0.084159     -0.081556     -0.054433
H             0.416005     -0.215725      0.189419
O            -0.216700     -0.263240     -0.108966
O            -0.306674     -0.090735      0.147035
O             0.197428     -0.090134      0.074065
O             0.287976     -0.255050     -0.147774
O            -0.059547     -0.247282      0.161182
O            -0.447624     -0.075196     -0.124893
O             0.048153     -0.084620     -0.153641
O             0.444771     -0.230396      0.091781
Lu            0.165130      0.078036      0.227663
Fe            0.356704      0.252901     -0.045613
Fe           -0.152988      0.251659     -0.227861
Fe           -0.347327      0.083518      0.019011
H            -0.097277      0.071800      0.038595
H            -0.405224      0.247002     -0.202031
H             0.070668      0.255957     -0.059317
H             0.433802      0.087607      0.199488
O            -0.203307      0.078512     -0.106685
O            -0.304352      0.247412      0.153169
O             0.199869      0.248126      0.084048
O             0.306965      0.079577     -0.183580
O            -0.061091      0.062818      0.135080
O            -0.442547      0.241647     -0.102455
O             0.050624      0.244727     -0.161049
O             0.450439      0.075825      0.097492
Fe            0.157122      0.416533      0.215002
Fe            0.348302     -0.406111     -0.011046
Fe           -0.146354     -0.414900     -0.218127
Fe           -0.346245      0.413744      0.023432
H            -0.100095      0.407065      0.063352
H            -0.420318     -0.426736     -0.208686
H             0.076212     -0.413681     -0.038530
H             0.423056      0.404440      0.195029
O            -0.196682      0.419165     -0.098593
O            -0.310940     -0.417563      0.154083
O             0.189429     -0.397794      0.103051
O             0.312542      0.429052     -0.157331
O            -0.062005      0.410349      0.159663
O            -0.446845     -0.424335     -0.107646
O             0.049107     -0.418774     -0.140615
O             0.437388      0.424683      0.093442
Fe            0.136737     -0.251343     -0.268132
Fe            0.367260     -0.074160      0.484695
Fe           -0.158561     -0.090164      0.273413
Fe           -0.350175     -0.249735     -0.458047
H            -0.092957     -0.262897     -0.446744
H            -0.412859     -0.116189      0.309998
H             0.093205     -0.098889      0.452293
H             0.401174     -0.252022     -0.286273
O            -0.190144     -0.254636      0.415479
O            -0.295732     -0.082506     -0.349823
O             0.209669     -0.092511     -0.412969
O             0.291729     -0.228986      0.333734
O            -0.062258     -0.257441     -0.343751
O            -0.440303     -0.098668      0.408433
O             0.039878     -0.104727      0.364254
O             0.445118     -0.230190     -0.377180
Fe            0.148990      0.077863     -0.293708
Fe            0.358992      0.253531      0.488014
Fe           -0.150667      0.244279      0.274672
Fe           -0.347871      0.080457     -0.477159
H            -0.090166      0.085408     -0.464779
H            -0.416712      0.247915      0.294175
H             0.072898      0.257951      0.444930
H             0.421883      0.099315     -0.294435
O            -0.183223      0.076689      0.405901
O            -0.314378      0.236980     -0.329608
O             0.201700      0.247339     -0.401915
O             0.330581      0.093674      0.364299
O            -0.039191      0.108535     -0.375033
O            -0.427113      0.246168      0.398458
O             0.051278      0.245277      0.341899
O             0.457403      0.090809     -0.392372
Fe            0.141920      0.413703     -0.264863
Lu            0.339667     -0.407774      0.476132
Fe           -0.154717     -0.417002      0.279587
Fe           -0.346517      0.404820     -0.462506
H            -0.087484      0.422800     -0.453865
H            -0.416479     -0.424959      0.317494
H             0.081477     -0.413982      0.457705
H             0.428914      0.423365     -0.293627
O            -0.203806      0.421949      0.401645
O            -0.301657     -0.417414     -0.342924
O             0.167535     -0.420932     -0.393212
O             0.316825      0.404960      0.341362
O            -0.054779      0.417977     -0.355991
O            -0.442363     -0.423068      0.417603
O             0.060503     -0.432951      0.356358
O             0.453487      0.412412     -0.396098
data_nwchem_pspw

_audit_creation_date   Sun Aug 25 00:22:28 2024
_audit_creation_method    generated by PSPW module of NWChem


_cell_length_a            10.0667
_cell_length_b             9.1552
_cell_length_c             9.2041
_cell_angle_alpha         90.0000
_cell_angle_beta          90.0000
_cell_angle_gamma         90.0000

_symmetry_space_group_name_H-M     P1  

loop_
_atom_site_type_symbol
_atom_site_fract_x
_atom_site_fract_y
_atom_site_fract_z
Fe            0.142244     -0.246374      0.224037
Fe            0.354998     -0.089020     -0.020870
Fe           -0.145410     -0.080107     -0.219683
Fe           -0.344659     -0.264471      0.012756
H            -0.088303     -0.234902      0.049612
H            -0.418545     -0.070022     -0.191309
H             0.075328     -0.077018     -0.047964
H             0.440916     -0.253525      0.203319
O            -0.183694     -0.240403     -0.100446
O            -0.314850     -0.095349      0.155747
O             0.192194     -0.096284      0.092187
O             0.314374     -0.242533     -0.152847
O            -0.060385     -0.233480      0.151200
O            -0.448169     -0.083714     -0.092190
O             0.049101     -0.064746     -0.148492
O             0.454325     -0.260024      0.101974
Lu            0.135751      0.082180      0.217594
Fe            0.370077      0.257949     -0.038447
Fe           -0.141385      0.254360     -0.221837
Fe           -0.343945      0.074698      0.029460
H            -0.113164      0.090844      0.049406
H            -0.420146      0.247580     -0.219060
H             0.105957      0.270839     -0.044924
H             0.407912      0.093719      0.188155
O            -0.198789      0.081289     -0.096594
O            -0.308205      0.254079      0.159843
O             0.196120      0.253503      0.080176
O             0.299191      0.089094     -0.141895
O            -0.080306      0.088496      0.149177
O            -0.448051      0.241147     -0.118306
O             0.056937      0.271815     -0.141473
O             0.443678      0.084775      0.090643
Fe            0.151139      0.414828      0.222397
Fe            0.351976     -0.403441     -0.018725
Fe           -0.144772     -0.411518     -0.232477
Fe           -0.347482      0.399099      0.024433
H            -0.075569      0.431060      0.030639
H            -0.405409     -0.443655     -0.199895
H             0.062493     -0.414707     -0.045077
H             0.429924      0.393143      0.201274
O            -0.195209      0.415084     -0.107875
O            -0.286712     -0.428949      0.140638
O             0.195067     -0.411924      0.101420
O             0.294239      0.431549     -0.143498
O            -0.048687      0.425153      0.132429
O            -0.451215     -0.442296     -0.104880
O             0.048481     -0.405478     -0.147594
O             0.439267      0.408831      0.098981
Fe            0.159197     -0.245502     -0.266647
Fe            0.349519     -0.086870      0.480843
Fe           -0.164336     -0.081278      0.281431
Fe           -0.353539     -0.252377     -0.458817
H            -0.070012     -0.287033     -0.460123
H            -0.422400     -0.085411      0.303147
H             0.054965     -0.077774      0.471560
H             0.415783     -0.288471     -0.291270
O            -0.207830     -0.268847      0.407056
O            -0.298619     -0.086104     -0.340918
O             0.192700     -0.083049     -0.389221
O             0.302847     -0.246381      0.343966
O            -0.048870     -0.263929     -0.360955
O            -0.444652     -0.094000      0.405991
O             0.022533     -0.083021      0.373321
O             0.443747     -0.267382     -0.388117
Fe            0.142416      0.084673     -0.272767
Fe            0.352580      0.250732      0.484213
Fe           -0.144235      0.279338      0.276056
Fe           -0.367784      0.087982     -0.483218
H            -0.076920      0.097099     -0.456451
H            -0.430764      0.271443      0.302112
H             0.092666      0.299276      0.441028
H             0.403814      0.106577     -0.284341
O            -0.211195      0.089601      0.392201
O            -0.296515      0.259476     -0.354198
O             0.200169      0.251565     -0.397341
O             0.305889      0.084333      0.352214
O            -0.053551      0.097083     -0.353824
O            -0.451734      0.266075      0.405526
O             0.050187      0.279121      0.349411
O             0.440621      0.080549     -0.379270
Fe            0.140920      0.418135     -0.263866
Lu            0.364899     -0.430886      0.461949
Fe           -0.138221     -0.413526      0.267497
Fe           -0.354195      0.421887     -0.461444
H            -0.075200      0.419828     -0.459147
H            -0.386375     -0.407584      0.297466
H             0.096173     -0.414840      0.445298
H             0.401563      0.431329     -0.285372
O            -0.194890      0.434743      0.422230
O            -0.308568     -0.415552     -0.338021
O             0.186339     -0.420977     -0.388934
O             0.297196      0.387425      0.345656
O            -0.040081      0.421665     -0.359041
O            -0.434595     -0.416077      0.386984
O             0.053077     -0.426095      0.352574
O             0.441614      0.410540     -0.382214
data_nwchem_pspw

_audit_creation_date   Sun Aug 25 05:48:24 2024
_audit_creation_method    generated by PSPW module of NWChem


_cell_length_a            10.0667
_cell_length_b             9.1552
_cell_length_c             9.2041
_cell_angle_alpha         90.0000
_cell_angle_beta          90.0000
_cell_angle_gamma         90.0000

_symmetry_space_group_name_H-M     P1  

loop_
_atom_site_type_symbol
_atom_site_fract_x
_atom_site_fract_y
_atom_site_fract_z
Fe            0.141338     -0.248733      0.222506
Fe            0.364753     -0.071926     -0.029910
Fe           -0.138514     -0.085506     -0.217357
Fe           -0.358461     -0.266274      0.019229
H            -0.077478     -0.233666      0.034527
H            -0.408402     -0.085732     -0.211153
H             0.087992     -0.100802     -0.047817
H             0.428088     -0.257536      0.192803
O            -0.205098     -0.255380     -0.091878
O            -0.312251     -0.096190      0.154089
O             0.212995     -0.098488      0.085844
O             0.302990     -0.243272     -0.146120
O            -0.047498     -0.220367      0.133114
O            -0.440289     -0.076107     -0.110232
O             0.047227     -0.089055     -0.144294
O             0.452263     -0.257632      0.091839
Lu            0.157562      0.077896      0.235350
Fe            0.350337      0.259636     -0.044888
Fe           -0.156581      0.243437     -0.219856
Fe           -0.349955      0.076285      0.037257
H            -0.087496      0.078090      0.051513
H            -0.423065      0.255700     -0.198585
H             0.094077      0.228443     -0.063644
H             0.413866      0.097039      0.198272
O            -0.197419      0.075550     -0.085951
O            -0.308909      0.248347      0.154712
O             0.196865      0.254049      0.080120
O             0.295625      0.083322     -0.160049
O            -0.050488      0.080498      0.149066
O            -0.452730      0.261590     -0.098859
O             0.047277      0.232330     -0.154622
O             0.445153      0.096693      0.097528
Fe            0.158627      0.404264      0.213452
Fe            0.343987     -0.408580     -0.028951
Fe           -0.153716     -0.422639     -0.218978
Fe           -0.354962      0.415710      0.028089
H            -0.055660      0.403703      0.031366
H            -0.413521     -0.419156     -0.201225
H             0.078027     -0.440830     -0.039945
H             0.416877      0.415488      0.192537
O            -0.210380      0.413938     -0.091999
O            -0.306845     -0.427637      0.161929
O             0.186786     -0.415447      0.093623
O             0.288926      0.418521     -0.158874
O            -0.047262      0.409703      0.135800
O            -0.454667     -0.436828     -0.107660
O             0.041253     -0.452375     -0.137621
O             0.445603      0.422758      0.093470
Fe            0.148966     -0.244695     -0.279040
Fe            0.363287     -0.076535      0.488243
Fe           -0.163199     -0.074127      0.276106
Fe           -0.352237     -0.248307     -0.473873
H            -0.067649     -0.261666     -0.451997
H            -0.430820     -0.078801      0.298296
H             0.065227     -0.080455      0.461126
H             0.407256     -0.257889     -0.279103
O            -0.196363     -0.251378      0.388163
O            -0.302059     -0.086232     -0.340885
O             0.189966     -0.084000     -0.412414
O             0.308870     -0.218272      0.338990
O            -0.044153     -0.246951     -0.350723
O            -0.448872     -0.097879      0.399095
O             0.043751     -0.087285      0.359122
O             0.439255     -0.260531     -0.379569
Fe            0.147153      0.076882     -0.280478
Fe            0.353382      0.249447      0.499841
Fe           -0.148878      0.251409      0.282884
Fe           -0.354958      0.085372     -0.477077
H            -0.081572      0.082852     -0.452528
H            -0.419326      0.267789      0.307761
H             0.077871      0.269921      0.455147
H             0.405553      0.079594     -0.292364
O            -0.193424      0.085011      0.426689
O            -0.309941      0.252007     -0.347450
O             0.188844      0.243454     -0.406380
O             0.322835      0.082857      0.360311
O            -0.056565      0.102059     -0.351802
O            -0.454013      0.242630      0.403680
O             0.044089      0.266189      0.355472
O             0.446795      0.076415     -0.388454
Fe            0.132641      0.418399     -0.276769
Lu            0.354474     -0.407691      0.467380
Fe           -0.129643     -0.409156      0.249694
Fe           -0.343208      0.416204     -0.476754
H            -0.109974      0.396918     -0.448982
H            -0.387174     -0.415122      0.307432
H             0.084993     -0.434983      0.442928
H             0.417590      0.409663     -0.287619
O            -0.202082      0.426724      0.401434
O            -0.302767     -0.411663     -0.344759
O             0.171608     -0.424059     -0.415393
O             0.299531      0.397847      0.344393
O            -0.072042      0.413836     -0.352252
O            -0.433499     -0.406866      0.401176
O             0.051857     -0.417247      0.343681
O             0.445144      0.420892     -0.387192
data_nwchem_pspw

_audit_creation_date   Sun Aug 25 10:12:13 2024
_audit_creation_method    generated by PSPW module of NWChem


_cell_length_a            10.0667
_cell_length_b             9.1552
_cell_length_c             9.2041
_cell_angle_alpha         90.0000
_cell_angle_beta          90.0000
_cell_angle_gamma         90.0000

_symmetry_space_group_name_H-M     P1  

loop_
_atom_site_type_symbol
_atom_site_fract_x
_atom_site_fract_y
_atom_site_fract_z
Fe            0.149672     -0.239964      0.214214
Fe            0.371755     -0.080864     -0.027205
Fe           -0.139397     -0.076240     -0.218818
Fe           -0.348330     -0.238872      0.024599
H            -0.050773     -0.273616      0.042905
H            -0.432401     -0.101152     -0.212740
H             0.095071     -0.083034     -0.048875
H             0.422912     -0.230406      0.202847
O            -0.208178     -0.242225     -0.094179
O            -0.305451     -0.065212      0.146076
O             0.198454     -0.098517      0.081509
O             0.298196     -0.249439     -0.155345
O            -0.045624     -0.245129      0.142211
O            -0.443255     -0.077830     -0.112571
O             0.049951     -0.067910     -0.142971
O             0.462877     -0.249577      0.109119
Lu            0.140869      0.083891      0.210733
Fe            0.353060      0.264862     -0.052576
Fe           -0.151818      0.260059     -0.222710
Fe           -0.349667      0.091102      0.013875
H            -0.097893      0.071562      0.050294
H            -0.412769      0.245211     -0.195842
H             0.095145      0.247831     -0.054711
H             0.410928      0.073618      0.193544
O            -0.191481      0.095874     -0.097362
O            -0.308797      0.258469      0.159064
O             0.197843      0.266887      0.088563
O             0.313160      0.082600     -0.151387
O            -0.066932      0.079590      0.150323
O            -0.447988      0.244812     -0.096669
O             0.055088      0.240967     -0.150319
O             0.445871      0.077175      0.094610
Fe            0.145967      0.405512      0.224628
Fe            0.348231     -0.408581     -0.016754
Fe           -0.146519     -0.400495     -0.221329
Fe           -0.350412      0.422106      0.033516
H            -0.091953      0.409316      0.046291
H            -0.417871     -0.415331     -0.185101
H             0.079368     -0.425897     -0.035847
H             0.396064      0.397442      0.187136
O            -0.206261      0.421139     -0.090468
O            -0.292716     -0.401965      0.145174
O             0.193430     -0.415655      0.111838
O             0.294288      0.428539     -0.160850
O            -0.062493      0.419774      0.145760
O            -0.454384     -0.423627     -0.087891
O             0.047081     -0.408677     -0.133874
O             0.444041      0.413486      0.095828
Fe            0.150388     -0.245764     -0.268777
Fe            0.356207     -0.082078      0.478908
Fe           -0.150799     -0.084633      0.269252
Fe           -0.339014     -0.265269     -0.468633
H            -0.073862     -0.251354     -0.443109
H            -0.420822     -0.065921      0.321739
H             0.076538     -0.095739      0.463414
H             0.423437     -0.245230     -0.303478
O            -0.173817     -0.261401      0.413067
O            -0.296060     -0.099573     -0.336566
O             0.208507     -0.095976     -0.410807
O             0.300925     -0.227611      0.342938
O            -0.042362     -0.250499     -0.341962
O            -0.452386     -0.094356      0.415174
O             0.043152     -0.085223      0.365921
O             0.456216     -0.251016     -0.400936
Fe            0.155433      0.070222     -0.274387
Fe            0.364149      0.245930      0.480024
Fe           -0.148643      0.245574      0.283840
Fe           -0.357084      0.064642     -0.458552
H            -0.078934      0.072199     -0.460225
H            -0.407325      0.232233      0.303666
H             0.055961      0.245822      0.460438
H             0.430632      0.066303     -0.290904
O            -0.216546      0.078417      0.394073
O            -0.310121      0.235084     -0.347671
O             0.193019      0.248545     -0.406503
O             0.317261      0.078017      0.346617
O            -0.060003      0.088540     -0.360309
O            -0.446934      0.226244      0.400724
O             0.042723      0.246920      0.357152
O             0.460075      0.081691     -0.388398
Fe            0.134876      0.404259     -0.289611
Lu            0.343416     -0.418293      0.479232
Fe           -0.140938     -0.418835      0.276384
Fe           -0.355317      0.414662     -0.475018
H            -0.099029      0.413370     -0.434421
H            -0.412904     -0.405734      0.296744
H             0.059447     -0.434827      0.455208
H             0.412097      0.422296     -0.284650
O            -0.189933      0.423151      0.401282
O            -0.305760     -0.414522     -0.329574
O             0.165633     -0.422176     -0.405001
O             0.312711      0.395444      0.344116
O            -0.060231      0.421338     -0.337972
O            -0.425040     -0.429122      0.396788
O             0.053709     -0.420212      0.350743
O             0.454144      0.423753     -0.381235
data_nwchem_pspw

_audit_creation_date   Sun Aug 25 14:37:25 2024
_audit_creation_method    generated by PSPW module of NWChem


_cell_length_a            10.0667
_cell_length_b             9.1552
_cell_length_c             9.2041
_cell_angle_alpha         90.0000
_cell_angle_beta          90.0000
_cell_angle_gamma         90.0000

_symmetry_space_group_name_H-M     P1  

loop_
_atom_site_type_symbol
_atom_site_fract_x
_atom_site_fract_y
_atom_site_fract_z
Fe            0.138194     -0.251544      0.228343
Fe            0.353572     -0.100541     -0.021254
Fe           -0.134120     -0.083086     -0.227485
Fe           -0.345314     -0.271187      0.026395
H            -0.077704     -0.279128      0.037563
H            -0.429279     -0.064907     -0.208362
H             0.086904     -0.096791     -0.047092
H             0.424881     -0.227732      0.194631
O            -0.200366     -0.249910     -0.109388
O            -0.309719     -0.091859      0.147220
O             0.197081     -0.097755      0.098961
O             0.295780     -0.260588     -0.138978
O            -0.052361     -0.259480      0.136279
O            -0.449421     -0.097726     -0.109773
O             0.058571     -0.087927     -0.148723
O             0.455048     -0.269310      0.104370
Lu            0.143315      0.088443      0.237146
Fe            0.348921      0.247017     -0.039512
Fe           -0.146034      0.271725     -0.244479
Fe           -0.361454      0.079468      0.005560
H            -0.108197      0.088665      0.034536
H            -0.418740      0.250470     -0.207474
H             0.086279      0.279464     -0.046208
H             0.421376      0.090974      0.194546
O            -0.210123      0.091711     -0.118350
O            -0.315665      0.235915      0.142092
O             0.193568      0.265329      0.087067
O             0.298457      0.078999     -0.145329
O            -0.067084      0.080344      0.130547
O            -0.447368      0.254930     -0.107224
O             0.047980      0.264729     -0.143666
O             0.437817      0.077646      0.092838
Fe            0.139576      0.412354      0.230382
Fe            0.350650     -0.433296     -0.009104
Fe           -0.143169     -0.412724     -0.212973
Fe           -0.348961      0.416698      0.032731
H            -0.094274      0.403700      0.055214
H            -0.409883     -0.425450     -0.205240
H             0.088926     -0.425829     -0.051417
H             0.400376      0.406516      0.200842
O            -0.187850      0.424904     -0.093258
O            -0.281289     -0.420313      0.155923
O             0.180510     -0.421111      0.095770
O             0.285269      0.412620     -0.146693
O            -0.051250      0.406348      0.148813
O            -0.446941     -0.432798     -0.105934
O             0.054735     -0.418215     -0.152477
O             0.444711      0.421181      0.105580
Fe            0.157300     -0.250445     -0.269810
Fe            0.352519     -0.078186      0.482964
Fe           -0.166162     -0.081729      0.264061
Fe           -0.349722     -0.241383     -0.468797
H            -0.079653     -0.262988     -0.457517
H            -0.423615     -0.070595      0.311080
H             0.069112     -0.086049      0.456007
H             0.434298     -0.235414     -0.285863
O            -0.203229     -0.254735      0.398975
O            -0.292830     -0.071675     -0.344217
O             0.198799     -0.087458     -0.389683
O             0.302970     -0.224539      0.335646
O            -0.046959     -0.255393     -0.358911
O            -0.452665     -0.067363      0.410072
O             0.038726     -0.083106      0.355746
O             0.450851     -0.237098     -0.388703
Fe            0.142591      0.081573     -0.260675
Fe            0.360609      0.248385      0.486668
Fe           -0.165721      0.236137      0.264784
Fe           -0.344111      0.087947     -0.466112
H            -0.079691      0.077338     -0.460626
H            -0.422443      0.238895      0.308753
H             0.085463      0.270093      0.456094
H             0.410379      0.092957     -0.282033
O            -0.197189      0.078481      0.402670
O            -0.298692      0.249701     -0.351826
O             0.201428      0.239762     -0.398489
O             0.325061      0.095250      0.344684
O            -0.038899      0.093375     -0.365325
O            -0.448035      0.259906      0.407307
O             0.047285      0.263884      0.358459
O             0.456101      0.105889     -0.375469
Fe            0.144662      0.416619     -0.278369
Lu            0.358781     -0.409176      0.459384
Fe           -0.138430     -0.414821      0.283892
Fe           -0.346093      0.421077     -0.476147
H            -0.060397      0.416819     -0.463979
H            -0.368934     -0.423089      0.296146
H             0.081498     -0.419965      0.454984
H             0.421083      0.430249     -0.298984
O            -0.199848      0.410318      0.387292
O            -0.306179     -0.415523     -0.344919
O             0.187250     -0.425237     -0.407599
O             0.294061      0.400957      0.344262
O            -0.050982      0.420819     -0.360626
O            -0.426939     -0.423949      0.379029
O             0.046897     -0.419197      0.355705
O             0.457711      0.414202     -0.394203
data_nwchem_pspw

_audit_creation_date   Sun Aug 25 19:23:08 2024
_audit_creation_method    generated by PSPW module of NWChem


_cell_length_a            10.0667
_cell_length_b             9.1552
_cell_length_c             9.2041
_cell_angle_alpha         90.0000
_cell_angle_beta          90.0000
_cell_angle_gamma         90.0000

_symmetry_space_group_name_H-M     P1  

loop_
_atom_site_type_symbol
_atom_site_fract_x
_atom_site_fract_y
_atom_site_fract_z
Fe            0.149223     -0.246354      0.215866
Fe            0.366557     -0.079376     -0.044752
Fe           -0.147575     -0.099434     -0.215172
Fe           -0.356864     -0.252624      0.035965
H            -0.083520     -0.260566      0.047255
H            -0.400570     -0.082932     -0.214236
H             0.083980     -0.090572     -0.054889
H             0.391261     -0.224306      0.192846
O            -0.192081     -0.259203     -0.078905
O            -0.315403     -0.079822      0.161118
O             0.200803     -0.096304      0.072023
O             0.285493     -0.245771     -0.171385
O            -0.038376     -0.258972      0.144032
O            -0.447524     -0.087171     -0.113828
O             0.044858     -0.075087     -0.151830
O             0.437711     -0.225097      0.099640
Lu            0.163564      0.084242      0.215634
Fe            0.362824      0.265284     -0.037865
Fe           -0.161227      0.229337     -0.218121
Fe           -0.358366      0.086827      0.018685
H            -0.085229      0.074181      0.058481
H            -0.411850      0.261900     -0.202102
H             0.083848      0.228603     -0.053281
H             0.443745      0.093673      0.198937
O            -0.201282      0.058451     -0.091976
O            -0.301356      0.243597      0.148383
O             0.202756      0.259601      0.081523
O             0.308674      0.094397     -0.153293
O            -0.048580      0.086274      0.154008
O            -0.437676      0.255725     -0.100087
O             0.044706      0.249723     -0.146749
O             0.448023      0.109615      0.094552
Fe            0.140648      0.415412      0.204222
Fe            0.348650     -0.406626     -0.030818
Fe           -0.150928     -0.421162     -0.214941
Fe           -0.356042      0.420610      0.039382
H            -0.093430      0.407861      0.049096
H            -0.405264     -0.408338     -0.199421
H             0.089920     -0.418796     -0.054135
H             0.415827      0.420088      0.208883
O            -0.204130      0.429841     -0.092353
O            -0.293135     -0.416413      0.153818
O             0.202822     -0.413791      0.090220
O             0.304162      0.418224     -0.160522
O            -0.056437      0.403202      0.147343
O            -0.449122     -0.412326     -0.103081
O             0.056047     -0.397039     -0.150007
O             0.450160      0.425672      0.107940
Fe            0.135732     -0.231868     -0.284311
Fe            0.351535     -0.079716      0.479079
Fe           -0.141202     -0.091664      0.274200
Fe           -0.366626     -0.247174     -0.470274
H            -0.104505     -0.232290     -0.434548
H            -0.427120     -0.059199      0.303193
H             0.084188     -0.069737      0.440915
H             0.435331     -0.244979     -0.280935
O            -0.200850     -0.252125      0.408743
O            -0.311239     -0.096166     -0.326796
O             0.191680     -0.069482     -0.413981
O             0.307883     -0.241348      0.343504
O            -0.065951     -0.250776     -0.340454
O            -0.444941     -0.071782      0.404942
O             0.049978     -0.095754      0.345374
O             0.445292     -0.244831     -0.386306
Fe            0.153757      0.091509     -0.270489
Fe            0.355099      0.243747      0.488079
Fe           -0.148895      0.253605      0.266240
Fe           -0.346551      0.085200     -0.470382
H            -0.086289      0.099575     -0.443321
H            -0.415133      0.252892      0.302263
H             0.086391      0.285097      0.434293
H             0.416487      0.063309     -0.295905
O            -0.196837      0.084126      0.401488
O            -0.299129      0.261657     -0.362511
O             0.194388      0.257822     -0.401262
O             0.327557      0.079954      0.349542
O            -0.048061      0.079489     -0.351113
O            -0.445119      0.255699      0.401183
O             0.056714      0.250279      0.342244
O             0.456078      0.071523     -0.391299
Fe            0.132509      0.413361     -0.277683
Lu            0.345138     -0.429333      0.490631
Fe           -0.132667     -0.409420      0.291297
Fe           -0.354514      0.428544     -0.489433
H            -0.101562      0.417520     -0.437369
H            -0.401253     -0.420783      0.294736
H             0.088411     -0.412429      0.448655
H             0.423490      0.411461     -0.292093
O            -0.185716      0.419750      0.403478
O            -0.308731     -0.419414     -0.332958
O             0.162371     -0.409421     -0.409235
O             0.308400      0.383149      0.336184
O            -0.067722      0.400235     -0.338444
O            -0.451998     -0.429996      0.386836
O             0.057401     -0.426028      0.343350
O             0.456021      0.391913     -0.390103
data_nwchem_pspw

_audit_creation_date   Sun Aug 25 23:22:34 2024
_audit_creation_method    generated by PSPW module of NWChem


_cell_length_a            10.0667
_cell_length_b             9.1552
_cell_length_c             9.2041
_cell_angle_alpha         90.0000
_cell_angle_beta          90.0000
_cell_angle_gamma         90.0000

_symmetry_space_group_name_H-M     P1  

loop_
_atom_site_type_symbol
_atom_site_fract_x
_atom_site_fract_y
_atom_site_fract_z
Fe            0.144909     -0.254046      0.220972
Fe            0.356126     -0.089169     -0.027999
Fe           -0.141742     -0.098501     -0.228173
Fe           -0.347582     -0.250041      0.038082
H            -0.104972     -0.235601      0.054492
H            -0.410284     -0.080042     -0.199526
H             0.090366     -0.102508     -0.064649
H             0.415175     -0.252205      0.187579
O            -0.199905     -0.270423     -0.099273
O            -0.315438     -0.080763      0.163001
O             0.203809     -0.091891      0.097543
O             0.304427     -0.248239     -0.154353
O            -0.055072     -0.242281      0.143720
O            -0.452985     -0.084068     -0.103322
O             0.050207     -0.089993     -0.159616
O             0.457627     -0.264583      0.092638
Lu            0.129113      0.080427      0.236659
Fe            0.360855      0.247203     -0.014012
Fe           -0.144185      0.238568     -0.227038
Fe           -0.353102      0.083953      0.017143
H            -0.106328      0.097658      0.042524
H            -0.401263      0.238562     -0.211658
H             0.084955      0.263508     -0.031026
H             0.434817      0.050353      0.202917
O            -0.212602      0.067290     -0.110353
O            -0.312724      0.254577      0.149781
O             0.195433      0.254235      0.106190
O             0.298840      0.093611     -0.138774
O            -0.081229      0.091917      0.145184
O            -0.436241      0.250712     -0.113475
O             0.050565      0.248650     -0.129764
O             0.443120      0.075310      0.102277
Fe            0.138208      0.412001      0.220409
Fe            0.356555     -0.416699     -0.041447
Fe           -0.143951     -0.433741     -0.230321
Fe           -0.352445      0.425444      0.016343
H            -0.091879      0.409549      0.047891
H            -0.411578     -0.447491     -0.207133
H             0.077507     -0.419328     -0.050810
H             0.403434      0.400304      0.189749
O            -0.196618      0.406493     -0.094684
O            -0.298964     -0.408917      0.152592
O             0.202499     -0.419238      0.092274
O             0.303878      0.410149     -0.156508
O            -0.055014      0.412816      0.146029
O            -0.440592     -0.418248     -0.111162
O             0.059899     -0.416509     -0.154618
O             0.443612      0.405575      0.091586
Fe            0.153645     -0.246904     -0.283707
Fe            0.348030     -0.069293      0.484277
Fe           -0.161572     -0.082724      0.283662
Fe           -0.358523     -0.246191     -0.463122
H            -0.079670     -0.281050     -0.462388
H            -0.399166     -0.074721      0.304452
H             0.041380     -0.106855      0.472180
H             0.409459     -0.247100     -0.302821
O            -0.206572     -0.255653      0.407031
O            -0.302012     -0.087930     -0.340317
O             0.201113     -0.067982     -0.397185
O             0.311550     -0.216662      0.337939
O            -0.049316     -0.267121     -0.363395
O            -0.437327     -0.080083      0.401834
O             0.035533     -0.093793      0.370391
O             0.437716     -0.225096     -0.399698
Fe            0.151044      0.092463     -0.260409
Fe            0.363685      0.253852      0.491066
Fe           -0.157454      0.249491      0.264782
Fe           -0.357459      0.086124     -0.472805
H            -0.070895      0.086951     -0.433563
H            -0.439695      0.279164      0.287141
H             0.064857      0.262041      0.474853
H             0.426600      0.104457     -0.285898
O            -0.205335      0.086542      0.406636
O            -0.295688      0.259421     -0.339607
O             0.212076      0.251222     -0.387704
O             0.312649      0.094466      0.354917
O            -0.047396      0.072330     -0.332629
O            -0.450027      0.269053      0.391213
O             0.047428      0.265819      0.372397
O             0.458569      0.094289     -0.385648
Fe            0.146273      0.417594     -0.272685
Lu            0.362600     -0.412565      0.456771
Fe           -0.137891     -0.404797      0.271629
Fe           -0.339112      0.415804     -0.472595
H            -0.084538      0.409873     -0.458296
H            -0.395652     -0.414970      0.305026
H             0.081120     -0.417851      0.451080
H             0.431551      0.413566     -0.293098
O            -0.194723      0.420442      0.399494
O            -0.302636     -0.420417     -0.348657
O             0.192478     -0.411141     -0.417263
O             0.302653      0.393754      0.337177
O            -0.046017      0.406752     -0.360345
O            -0.436987     -0.418728      0.398491
O             0.058222     -0.420767      0.346508
O             0.457460      0.420190     -0.393728
data_nwchem_pspw

_audit_creation_date   Mon Aug 26 03:57:16 2024
_audit_creation_method    generated by PSPW module of NWChem


_cell_length_a            10.0667
_cell_length_b             9.1552
_cell_length_c             9.2041
_cell_angle_alpha         90.0000
_cell_angle_beta          90.0000
_cell_angle_gamma         90.0000

_symmetry_space_group_name_H-M     P1  

loop_
_atom_site_type_symbol
_atom_site_fract_x
_atom_site_fract_y
_atom_site_fract_z
Fe            0.143865     -0.245160      0.229802
Fe            0.352403     -0.107103     -0.027926
Fe           -0.133832     -0.075747     -0.231272
Fe           -0.357104     -0.236718      0.018157
H            -0.086416     -0.266013      0.054663
H            -0.419300     -0.102589     -0.202348
H             0.096259     -0.087878     -0.053984
H             0.408876     -0.243944      0.199415
O            -0.209531     -0.233931     -0.108165
O            -0.307040     -0.091815      0.155915
O             0.192126     -0.106644      0.085891
O             0.291217     -0.267469     -0.145641
O            -0.060557     -0.261393      0.153652
O            -0.449293     -0.078005     -0.106358
O             0.054337     -0.070691     -0.150581
O             0.448398     -0.257664      0.103144
Lu            0.168945      0.093391      0.205370
Fe            0.344947      0.241988     -0.031399
Fe           -0.145035      0.250873     -0.218426
Fe           -0.355750      0.077324      0.007109
H            -0.091687      0.084196      0.043842
H            -0.414482      0.242067     -0.201628
H             0.083047      0.281419     -0.051977
H             0.424333      0.110810      0.212100
O            -0.186502      0.091859     -0.091140
O            -0.314103      0.244565      0.145537
O             0.189688      0.278718      0.075317
O             0.295944      0.075458     -0.131804
O            -0.049642      0.075177      0.139848
O            -0.449398      0.250533     -0.104003
O             0.057394      0.255184     -0.151612
O             0.420911      0.094061      0.109597
Fe            0.134321      0.415620      0.240474
Fe            0.337819     -0.433434     -0.012010
Fe           -0.146798     -0.402774     -0.222899
Fe           -0.353319      0.424866      0.020120
H            -0.082931      0.424927      0.041761
H            -0.411003     -0.414081     -0.200625
H             0.069329     -0.399507     -0.036932
H             0.417575      0.389244      0.191707
O            -0.196036      0.426244     -0.112347
O            -0.304455     -0.426142      0.147559
O             0.180932     -0.411302      0.108842
O             0.298829      0.410477     -0.160387
O            -0.063116      0.420601      0.144910
O            -0.456302     -0.398303     -0.106484
O             0.049550     -0.407175     -0.139089
O             0.436790      0.413845      0.092727
Fe            0.137100     -0.237453     -0.267945
Fe            0.352205     -0.077274      0.489691
Fe           -0.143793     -0.092025      0.271940
Fe           -0.346138     -0.259269     -0.472001
H            -0.089783     -0.245065     -0.462903
H            -0.407014     -0.096133      0.307691
H             0.050539     -0.121045      0.459808
H             0.403660     -0.260649     -0.288022
O            -0.197275     -0.260137      0.405616
O            -0.298087     -0.085824     -0.355636
O             0.190839     -0.071132     -0.389725
O             0.299891     -0.217333      0.341400
O            -0.058885     -0.231915     -0.363558
O            -0.450062     -0.096558      0.402846
O             0.044056     -0.092552      0.360469
O             0.437248     -0.258713     -0.385566
Fe            0.153813      0.095504     -0.268819
Fe            0.357994      0.251319      0.488023
Fe           -0.143040      0.246358      0.260765
Fe           -0.360470      0.079875     -0.481378
H            -0.085665      0.108172     -0.449155
H            -0.420837      0.249728      0.301529
H             0.102429      0.233247      0.445732
H             0.405953      0.071243     -0.276416
O            -0.191148      0.087029      0.402112
O            -0.295647      0.238473     -0.347436
O             0.190383      0.249220     -0.407097
O             0.322353      0.081613      0.358393
O            -0.058582      0.104635     -0.348321
O            -0.442750      0.265091      0.404026
O             0.056265      0.252945      0.354679
O             0.450092      0.074210     -0.370621
Fe            0.144580      0.422329     -0.265949
Lu            0.346696     -0.429274      0.485538
Fe           -0.154175     -0.417904      0.271079
Fe           -0.333616      0.411647     -0.476152
H            -0.073376      0.428520     -0.451701
H            -0.402162     -0.421605      0.305884
H             0.073742     -0.416428      0.453750
H             0.440944      0.420925     -0.291816
O            -0.189023      0.413703      0.394149
O            -0.296946     -0.415177     -0.355021
O             0.165994     -0.415330     -0.393436
O             0.307430      0.394250      0.337427
O            -0.052649      0.423396     -0.349275
O            -0.433305     -0.420012      0.406829
O             0.051860     -0.416045      0.350356
O             0.456776      0.403301     -0.393770
data_nwchem_pspw

_audit_creation_date   Mon Aug 26 13:48:12 2024
_audit_creation_method    generated by PSPW module of NWChem


_cell_length_a            10.0667
_cell_length_b             9.1552
_cell_length_c             9.2041
_cell_angle_alpha         90.0000
_cell_angle_beta          90.0000
_cell_angle_gamma         90.0000

_symmetry_space_group_name_H-M     P1  

loop_
_atom_site_type_symbol
_atom_site_fract_x
_atom_site_fract_y
_atom_site_fract_z
Fe            0.157108     -0.245123      0.200663
Fe            0.348135     -0.077936     -0.040965
Fe           -0.143030     -0.074492     -0.221006
Fe           -0.348486     -0.239741      0.021163
H            -0.071635     -0.246892      0.044610
H            -0.405851     -0.084232     -0.196117
H             0.088786     -0.056731     -0.065290
H             0.409871     -0.252488      0.190089
O            -0.187095     -0.250149     -0.095045
O            -0.297236     -0.072506      0.149536
O             0.188486     -0.081610      0.068860
O             0.305038     -0.268698     -0.163523
O            -0.046431     -0.249803      0.146385
O            -0.451095     -0.085361     -0.101480
O             0.051273     -0.094862     -0.156949
O             0.452136     -0.266228      0.096042
Lu            0.129653      0.086197      0.244124
Fe            0.353948      0.246831     -0.042070
Fe           -0.137372      0.251769     -0.221927
Fe           -0.355896      0.090588      0.025398
H            -0.122707      0.078253      0.061294
H            -0.409947      0.248057     -0.197581
H             0.096230      0.239185     -0.056266
H             0.401000      0.070324      0.187379
O            -0.209041      0.089282     -0.094192
O            -0.307300      0.274236      0.153765
O             0.190119      0.245889      0.097894
O             0.299772      0.083190     -0.162916
O            -0.073469      0.069998      0.152644
O            -0.455269      0.259630     -0.105395
O             0.056063      0.224483     -0.151155
O             0.443456      0.086371      0.095145
Fe            0.132655      0.407282      0.216905
Fe            0.357605     -0.432083     -0.030702
Fe           -0.141800     -0.418009     -0.203144
Fe           -0.354806      0.431737      0.027237
H            -0.070188      0.416473      0.040951
H            -0.405096     -0.410640     -0.192627
H             0.076734     -0.437353     -0.042368
H             0.419905      0.378609      0.188810
O            -0.196106      0.420800     -0.089058
O            -0.297738     -0.405875      0.155684
O             0.197927     -0.419780      0.094886
O             0.285605      0.404768     -0.155148
O            -0.047574      0.427254      0.142215
O            -0.441913     -0.418965     -0.097169
O             0.048814     -0.431980     -0.143786
O             0.448680      0.405491      0.091625
Fe            0.144287     -0.261800     -0.269701
Fe            0.362965     -0.081871      0.486237
Fe           -0.152347     -0.093099      0.286934
Fe           -0.342999     -0.257776     -0.459642
H            -0.101199     -0.260003     -0.445983
H            -0.422689     -0.102199      0.301960
H             0.051866     -0.092862      0.474311
H             0.423834     -0.270066     -0.288612
O            -0.189175     -0.272725      0.415476
O            -0.296561     -0.087114     -0.339612
O             0.207375     -0.097460     -0.403309
O             0.309721     -0.219254      0.322614
O            -0.062742     -0.259291     -0.349644
O            -0.439886     -0.100860      0.404698
O             0.033302     -0.108844      0.374014
O             0.455040     -0.249376     -0.385827
Fe            0.151308      0.074941     -0.297602
Fe            0.374854      0.260565      0.459590
Fe           -0.161677      0.249634      0.283615
Fe           -0.356677      0.073149     -0.477811
H            -0.083844      0.119791     -0.434301
H            -0.390509      0.259243      0.314243
H             0.089768      0.276977      0.468117
H             0.430803      0.090925     -0.302440
O            -0.199846      0.081347      0.418677
O            -0.286565      0.244834     -0.340492
O             0.207414      0.257379     -0.408162
O             0.314821      0.069111      0.355003
O            -0.048589      0.088193     -0.341920
O            -0.433394      0.254238      0.409009
O             0.035597      0.269802      0.377805
O             0.464516      0.079843     -0.400579
Fe            0.138227      0.406083     -0.274347
Lu            0.347503     -0.403751      0.462993
Fe           -0.141042     -0.414869      0.267510
Fe           -0.333851      0.417531     -0.466012
H            -0.086263      0.413312     -0.443216
H            -0.406195     -0.404270      0.304297
H             0.081696     -0.376926      0.440333
H             0.410285      0.447646     -0.310232
O            -0.194357      0.419738      0.400834
O            -0.283947     -0.418749     -0.335676
O             0.173119     -0.420424     -0.404399
O             0.302454      0.401522      0.321739
O            -0.045373      0.411544     -0.347719
O            -0.443662     -0.421089      0.399881
O             0.073450     -0.406641      0.339292
O             0.460731      0.430523     -0.395391
data_nwchem_pspw

_audit_creation_date   Mon Aug 26 18:35:54 2024
_audit_creation_method    generated by PSPW module of NWChem


_cell_length_a            10.0667
_cell_length_b             9.1552
_cell_length_c             9.2041
_cell_angle_alpha         90.0000
_cell_angle_beta          90.0000
_cell_angle_gamma         90.0000

_symmetry_space_group_name_H-M     P1  

loop_
_atom_site_type_symbol
_atom_site_fract_x
_atom_site_fract_y
_atom_site_fract_z
Fe            0.153804     -0.256646      0.228399
Fe            0.363099     -0.083676     -0.030564
Fe           -0.157150     -0.070186     -0.238722
Fe           -0.352904     -0.240553      0.025192
H            -0.092461     -0.254420      0.037856
H            -0.423264     -0.084549     -0.210172
H             0.068879     -0.086058     -0.043745
H             0.436047     -0.228143      0.198577
O            -0.194911     -0.243187     -0.102472
O            -0.297302     -0.089185      0.161129
O             0.208129     -0.103839      0.094613
O             0.307593     -0.251916     -0.148347
O            -0.047442     -0.256638      0.134239
O            -0.455026     -0.086588     -0.109247
O             0.033956     -0.071797     -0.139036
O             0.452175     -0.245573      0.096900
Lu            0.163955      0.081892      0.210205
Fe            0.350141      0.269336     -0.028083
Fe           -0.156428      0.237477     -0.239395
Fe           -0.363919      0.082731      0.035118
H            -0.113108      0.065664      0.049169
H            -0.430039      0.265369     -0.199483
H             0.059131      0.246256     -0.042480
H             0.421603      0.066679      0.204888
O            -0.224556      0.087974     -0.104431
O            -0.315126      0.245140      0.149519
O             0.179271      0.262115      0.083624
O             0.294922      0.102200     -0.147497
O            -0.074715      0.078332      0.144920
O            -0.449612      0.263181     -0.096510
O             0.039779      0.252883     -0.145119
O             0.448168      0.093718      0.104962
Fe            0.134893      0.407494      0.236024
Fe            0.352815     -0.415202     -0.002185
Fe           -0.144197     -0.411228     -0.221658
Fe           -0.350820      0.418736      0.018518
H            -0.066145      0.435756      0.036070
H            -0.404926     -0.408372     -0.198832
H             0.080406     -0.418465     -0.030409
H             0.415399      0.427171      0.205931
O            -0.210415      0.425114     -0.115394
O            -0.293061     -0.413472      0.134617
O             0.200603     -0.409856      0.112476
O             0.310256      0.434125     -0.150139
O            -0.050769      0.424769      0.138738
O            -0.439545     -0.417701     -0.100932
O             0.051890     -0.410814     -0.130510
O             0.446670      0.426339      0.107846
Fe            0.141101     -0.254170     -0.253287
Fe            0.345924     -0.084542     -0.490197
Fe           -0.139373     -0.093051      0.264860
Fe           -0.354379     -0.244749     -0.475694
H            -0.082661     -0.264931     -0.450677
H            -0.423593     -0.107165      0.293511
H             0.066044     -0.099159      0.457288
H             0.425833     -0.275806     -0.291122
O            -0.200216     -0.246739      0.394523
O            -0.306359     -0.087717     -0.358706
O             0.192203     -0.087208     -0.379509
O             0.311413     -0.226776      0.351378
O            -0.051492     -0.253724     -0.351761
O            -0.446448     -0.080544      0.391040
O             0.053709     -0.089178      0.354178
O             0.448228     -0.254011     -0.390635
Fe            0.143533      0.081317     -0.266388
Fe            0.349902      0.245056      0.495852
Fe           -0.165076      0.244586      0.271384
Fe           -0.370280      0.086734     -0.493314
H            -0.110150      0.089962     -0.466678
H            -0.412450      0.256297      0.306736
H             0.063220      0.205797      0.449881
H             0.407435      0.080108     -0.288863
O            -0.200198      0.076926      0.396591
O            -0.308489      0.260934     -0.356110
O             0.188405      0.248074     -0.403782
O             0.306199      0.075489      0.365690
O            -0.066845      0.080124     -0.368119
O            -0.457152      0.253353      0.399419
O             0.024071      0.229948      0.358744
O             0.448495      0.086067     -0.384786
Fe            0.154103      0.412817     -0.255736
Lu            0.363716     -0.425477      0.468483
Fe           -0.139979     -0.405702      0.265288
Fe           -0.346342      0.424237     -0.476990
H            -0.025734      0.425812     -0.436505
H            -0.397830     -0.425186      0.293089
H             0.100185     -0.412082      0.460064
H             0.430783      0.419937     -0.293842
O            -0.204998      0.423681      0.386712
O            -0.301423     -0.405502     -0.344894
O             0.182221     -0.423169     -0.408102
O             0.300444      0.391179      0.337517
O            -0.034956      0.413015     -0.332582
O            -0.438197     -0.420420      0.388756
O             0.060096     -0.413318      0.358247
O             0.458842      0.415022     -0.394544
data_nwchem_pspw

_audit_creation_date   Mon Aug 26 23:33:09 2024
_audit_creation_method    generated by PSPW module of NWChem


_cell_length_a            10.0667
_cell_length_b             9.1552
_cell_length_c             9.2041
_cell_angle_alpha         90.0000
_cell_angle_beta          90.0000
_cell_angle_gamma         90.0000

_symmetry_space_group_name_H-M     P1  

loop_
_atom_site_type_symbol
_atom_site_fract_x
_atom_site_fract_y
_atom_site_fract_z
Fe            0.159684     -0.245921      0.208779
Fe            0.341734     -0.069750     -0.036729
Fe           -0.150652     -0.081525     -0.219801
Fe           -0.348327     -0.274922      0.030622
H            -0.079460     -0.255298      0.053085
H            -0.403321     -0.060028     -0.190050
H             0.064658     -0.094588     -0.058543
H             0.442464     -0.259909      0.194981
O            -0.201336     -0.257235     -0.093288
O            -0.305650     -0.113996      0.162199
O             0.197128     -0.081366      0.085067
O             0.284302     -0.245742     -0.151856
O            -0.040583     -0.262559      0.150392
O            -0.446336     -0.103371     -0.107316
O             0.048660     -0.073107     -0.156776
O             0.449792     -0.255296      0.092216
Lu            0.144050      0.089765      0.235270
Fe            0.353434      0.258328     -0.020847
Fe           -0.149434      0.233726     -0.214323
Fe           -0.360529      0.065122      0.044486
H            -0.098560      0.086053      0.057660
H            -0.414328      0.234051     -0.204208
H             0.088523      0.232501     -0.061827
H             0.413341      0.069030      0.199456
O            -0.203438      0.068338     -0.079649
O            -0.317456      0.261173      0.161571
O             0.186493      0.254160      0.083914
O             0.319946      0.095416     -0.169756
O            -0.056008      0.085943      0.152114
O            -0.444580      0.216714     -0.103374
O             0.045096      0.233792     -0.157124
O             0.446176      0.077340      0.106095
Fe            0.134907      0.413214      0.220207
Fe            0.357675     -0.409177     -0.027142
Fe           -0.138853     -0.420854     -0.213693
Fe           -0.359918      0.393636      0.003635
H            -0.081083      0.398013      0.050055
H            -0.402777     -0.424595     -0.208884
H             0.083368     -0.424178     -0.045700
H             0.417245      0.416131      0.191593
O            -0.199880      0.407535     -0.090611
O            -0.294392     -0.433338      0.151858
O             0.200323     -0.430671      0.094171
O             0.299629      0.412984     -0.150891
O            -0.058999      0.405528      0.151551
O            -0.442978     -0.433186     -0.107851
O             0.055420     -0.410837     -0.145608
O             0.449900      0.411831      0.092904
Fe            0.145506     -0.231118     -0.276638
Fe            0.356775     -0.077571      0.479183
Fe           -0.148347     -0.086489      0.267756
Fe           -0.344005     -0.243335     -0.474486
H            -0.089753     -0.259133     -0.448305
H            -0.412183     -0.076884      0.296009
H             0.072345     -0.104609      0.449832
H             0.450722     -0.227272     -0.300477
O            -0.198127     -0.249119      0.405504
O            -0.303409     -0.089649     -0.349001
O             0.186634     -0.081316     -0.418230
O             0.319050     -0.239490      0.329947
O            -0.065114     -0.254043     -0.346121
O            -0.446898     -0.078061      0.395265
O             0.052927     -0.093657      0.347232
O             0.458674     -0.243995     -0.402631
Fe            0.147318      0.098655     -0.280844
Fe            0.361336      0.261945      0.471295
Fe           -0.164352      0.249379      0.278998
Fe           -0.359607      0.085648     -0.477106
H            -0.092099      0.080739     -0.445989
H            -0.421706      0.273376      0.303736
H             0.076448      0.245129      0.465410
H             0.438185      0.082002     -0.287360
O            -0.200827      0.076801      0.421250
O            -0.298683      0.255953     -0.340354
O             0.203805      0.253795     -0.403029
O             0.312922      0.091355      0.349156
O            -0.047378      0.069913     -0.351244
O            -0.448932      0.264726      0.405415
O             0.031901      0.252925      0.371951
O             0.450164      0.087568     -0.389910
Fe            0.148554      0.426781     -0.279345
Lu            0.359547     -0.418734      0.473489
Fe           -0.143580     -0.413221      0.263717
Fe           -0.343437      0.424119     -0.475626
H            -0.066847      0.431461     -0.448647
H            -0.403251     -0.417552      0.302357
H             0.082659     -0.415749      0.435882
H             0.415922      0.416118     -0.283597
O            -0.200692      0.424530      0.399866
O            -0.301967     -0.413412     -0.332712
O             0.177935     -0.411611     -0.406037
O             0.295230      0.409937      0.332321
O            -0.052238      0.415577     -0.346330
O            -0.440394     -0.418234      0.399887
O             0.058784     -0.406877      0.333492
O             0.450398      0.423788     -0.381496
data_nwchem_pspw

_audit_creation_date   Tue Aug 27 23:52:57 2024
_audit_creation_method    generated by PSPW module of NWChem


_cell_length_a            10.0667
_cell_length_b             9.1552
_cell_length_c             9.2041
_cell_angle_alpha         90.0000
_cell_angle_beta          90.0000
_cell_angle_gamma         90.0000

_symmetry_space_group_name_H-M     P1  

loop_
_atom_site_type_symbol
_atom_site_fract_x
_atom_site_fract_y
_atom_site_fract_z
Fe            0.132436     -0.259741      0.220171
Fe            0.350360     -0.091385     -0.033488
Fe           -0.140534     -0.076312     -0.222917
Fe           -0.353940     -0.243965      0.023207
H            -0.078731     -0.242866      0.040514
H            -0.424651     -0.096991     -0.189261
H             0.083811     -0.086644     -0.052887
H             0.405562     -0.239720      0.203517
O            -0.199577     -0.245988     -0.106833
O            -0.300822     -0.079952      0.158330
O             0.195975     -0.103795      0.105818
O             0.287646     -0.257018     -0.150639
O            -0.057811     -0.240667      0.141904
O            -0.462524     -0.085042     -0.093325
O             0.057378     -0.078510     -0.152264
O             0.447626     -0.248222      0.106835
Lu            0.151783      0.073624      0.223912
Fe            0.359464      0.263495     -0.025869
Fe           -0.130608      0.247741     -0.221171
Fe           -0.356275      0.078518      0.029411
H            -0.091085      0.087357      0.053236
H            -0.424359      0.256808     -0.206150
H             0.098384      0.250159     -0.044435
H             0.422560      0.089968      0.204003
O            -0.200450      0.078887     -0.090375
O            -0.304873      0.263632      0.153368
O             0.207400      0.258572      0.090017
O             0.289267      0.089798     -0.127269
O            -0.057065      0.110164      0.150309
O            -0.444954      0.267669     -0.105271
O             0.055304      0.246459     -0.139362
O             0.444073      0.082003      0.098247
Fe            0.136636      0.401375      0.225526
Fe            0.353021     -0.411729     -0.020932
Fe           -0.146612     -0.416245     -0.226989
Fe           -0.352460      0.430881      0.016059
H            -0.079555      0.420020      0.053658
H            -0.413417     -0.411657     -0.212619
H             0.083711     -0.423397     -0.045128
H             0.437801      0.405895      0.195264
O            -0.193518      0.425140     -0.097856
O            -0.304755     -0.403892      0.139278
O             0.194379     -0.422341      0.097086
O             0.301910      0.419227     -0.153590
O            -0.055793      0.426866      0.154922
O            -0.460637     -0.401638     -0.118970
O             0.054933     -0.412675     -0.145436
O             0.461518      0.429935      0.097349
Fe            0.141077     -0.262316     -0.268716
Fe            0.354288     -0.086060      0.477784
Fe           -0.146065     -0.074634      0.283082
Fe           -0.360706     -0.251205     -0.467916
H            -0.092900     -0.235319     -0.447904
H            -0.392630     -0.093457      0.312927
H             0.086868     -0.088768      0.454993
H             0.442114     -0.243351     -0.282964
O            -0.206981     -0.254088      0.406587
O            -0.301996     -0.083268     -0.352229
O             0.209170     -0.082988     -0.395149
O             0.290945     -0.238026      0.342894
O            -0.056232     -0.235764     -0.350297
O            -0.444878     -0.095836      0.400660
O             0.050229     -0.087607      0.358490
O             0.455067     -0.255773     -0.385087
Fe            0.154260      0.085200     -0.284430
Fe            0.368489      0.245651      0.479488
Fe           -0.151023      0.265430      0.268658
Fe           -0.339335      0.087498     -0.468508
H            -0.080408      0.109569     -0.445793
H            -0.421998      0.265875      0.300638
H             0.061589      0.274364      0.458663
H             0.423926      0.068963     -0.292865
O            -0.199057      0.093525      0.397649
O            -0.285329      0.256875     -0.350281
O             0.219164      0.250646     -0.399810
O             0.319148      0.085723      0.356236
O            -0.047477      0.083566     -0.350202
O            -0.433374      0.248674      0.402902
O             0.041087      0.256664      0.358688
O             0.460392      0.082531     -0.388016
Fe            0.145272      0.403934     -0.269244
Lu            0.334958     -0.423413      0.468340
Fe           -0.150157     -0.408727      0.266423
Fe           -0.334083      0.418155     -0.478894
H            -0.063804      0.439330     -0.444358
H            -0.425947     -0.406347      0.282327
H             0.069320     -0.407486      0.462491
H             0.446757      0.410303     -0.304718
O            -0.181215      0.424421      0.407549
O            -0.304778     -0.412243     -0.340118
O             0.165934     -0.423549     -0.400428
O             0.292920      0.386051      0.344051
O            -0.042612      0.423168     -0.343350
O            -0.448872     -0.427289      0.382213
O             0.045170     -0.408083      0.359516
O             0.467683      0.418362     -0.404803
data_nwchem_pspw

_audit_creation_date   Wed Aug 28 04:54:29 2024
_audit_creation_method    generated by PSPW module of NWChem


_cell_length_a            10.0667
_cell_length_b             9.1552
_cell_length_c             9.2041
_cell_angle_alpha         90.0000
_cell_angle_beta          90.0000
_cell_angle_gamma         90.0000

_symmetry_space_group_name_H-M     P1  

loop_
_atom_site_type_symbol
_atom_site_fract_x
_atom_site_fract_y
_atom_site_fract_z
Fe            0.139600     -0.244104      0.224000
Fe            0.345090     -0.092986     -0.026500
Fe           -0.143734     -0.085776     -0.240686
Fe           -0.350726     -0.239204      0.025274
H            -0.103555     -0.257623      0.055326
H            -0.405752     -0.092382     -0.195882
H             0.076295     -0.091307     -0.043165
H             0.377573     -0.242032      0.198334
O            -0.205902     -0.248473     -0.094747
O            -0.315637     -0.092745      0.165467
O             0.177880     -0.097245      0.079749
O             0.287350     -0.235773     -0.150954
O            -0.064274     -0.262239      0.151084
O            -0.455444     -0.086444     -0.101905
O             0.049194     -0.086051     -0.148859
O             0.434315     -0.246249      0.112379
Lu            0.142870      0.091903      0.210371
Fe            0.363757      0.250787     -0.038727
Fe           -0.146287      0.256911     -0.226494
Fe           -0.371200      0.074404      0.017594
H            -0.115498      0.073819      0.043414
H            -0.410429      0.220469     -0.198872
H             0.095476      0.257997     -0.040543
H             0.416728      0.069132      0.197244
O            -0.203509      0.087152     -0.090715
O            -0.308498      0.242169      0.155279
O             0.196339      0.276726      0.088771
O             0.307114      0.066943     -0.145401
O            -0.067432      0.067608      0.141186
O            -0.446689      0.239951     -0.101986
O             0.052264      0.248570     -0.136755
O             0.434460      0.069957      0.095908
Fe            0.143650      0.420799      0.232507
Fe            0.347162     -0.417354     -0.013812
Fe           -0.148606     -0.403907     -0.227261
Fe           -0.346472      0.418679      0.023386
H            -0.093363      0.400969      0.047332
H            -0.436755     -0.416619     -0.192591
H             0.066197     -0.439569     -0.049906
H             0.427995      0.420067      0.206028
O            -0.193926      0.430335     -0.094386
O            -0.300732     -0.417223      0.160152
O             0.200229     -0.408978      0.106047
O             0.307703      0.417989     -0.152385
O            -0.053281      0.410091      0.142576
O            -0.452267     -0.399415     -0.092489
O             0.046904     -0.433883     -0.146853
O             0.446795      0.418272      0.104503
Fe            0.134616     -0.256026     -0.269335
Fe            0.341484     -0.069548      0.481362
Fe           -0.154316     -0.085694      0.274752
Fe           -0.356761     -0.266524     -0.470122
H            -0.093521     -0.256389     -0.448943
H            -0.419155     -0.116166      0.309346
H             0.089869     -0.087917      0.457286
H             0.401593     -0.235884     -0.283126
O            -0.184791     -0.250585      0.415007
O            -0.316820     -0.093858     -0.329452
O             0.192809     -0.077173     -0.391647
O             0.296019     -0.228657      0.338659
O            -0.051248     -0.259164     -0.350313
O            -0.447981     -0.113584      0.409987
O             0.046844     -0.082733      0.362685
O             0.448655     -0.235113     -0.376289
Fe            0.157270      0.078545     -0.256186
Fe            0.360111      0.254375      0.489376
Fe           -0.144390      0.238064      0.254982
Fe           -0.352182      0.069909     -0.479880
H            -0.044069      0.098434     -0.448453
H            -0.430809      0.233747      0.297102
H             0.084915      0.248381      0.451015
H             0.416992      0.071734     -0.290751
O            -0.205709      0.079589      0.404758
O            -0.306490      0.251040     -0.336612
O             0.196038      0.255374     -0.397672
O             0.311726      0.094807      0.361655
O            -0.044528      0.094258     -0.345205
O            -0.448108      0.226265      0.400463
O             0.045911      0.251752      0.355112
O             0.447982      0.080120     -0.389419
Fe            0.147865      0.403059     -0.270623
Lu            0.370627     -0.401126      0.470297
Fe           -0.149838     -0.415482      0.279000
Fe           -0.330940      0.395277     -0.476560
H            -0.074949      0.395404     -0.446823
H            -0.381572     -0.416284      0.297176
H             0.093147     -0.420581      0.462862
H             0.425195      0.413851     -0.302541
O            -0.191197      0.414116      0.390924
O            -0.299763     -0.420386     -0.354937
O             0.200917     -0.409724     -0.392583
O             0.296922      0.406018      0.341260
O            -0.057989      0.415179     -0.345498
O            -0.419084     -0.425937      0.397179
O             0.064342     -0.419509      0.361158
O             0.461563      0.415974     -0.400275
data_nwchem_pspw

_audit_creation_date   Wed Aug 28 09:27:10 2024
_audit_creation_method    generated by PSPW module of NWChem


_cell_length_a            10.0667
_cell_length_b             9.1552
_cell_length_c             9.2041
_cell_angle_alpha         90.0000
_cell_angle_beta          90.0000
_cell_angle_gamma         90.0000

_symmetry_space_group_name_H-M     P1  

loop_
_atom_site_type_symbol
_atom_site_fract_x
_atom_site_fract_y
_atom_site_fract_z
Fe            0.152870     -0.269396      0.199605
Fe            0.361381     -0.081033     -0.031081
Fe           -0.147446     -0.064625     -0.227334
Fe           -0.352429     -0.256734      0.039503
H            -0.066102     -0.258919      0.049410
H            -0.420567     -0.093968     -0.202050
H             0.089714     -0.077368     -0.036085
H             0.418162     -0.250475      0.181071
O            -0.211537     -0.243830     -0.104176
O            -0.293270     -0.079584      0.144827
O             0.195881     -0.092645      0.089691
O             0.300108     -0.252453     -0.159755
O            -0.042380     -0.242644      0.149236
O            -0.445195     -0.078885     -0.101438
O             0.047639     -0.074731     -0.134676
O             0.456058     -0.250810      0.083191
Lu            0.146131      0.082958      0.247884
Fe            0.365585      0.248241     -0.031572
Fe           -0.150572      0.270356     -0.223029
Fe           -0.363207      0.075821      0.024554
H            -0.104222      0.086491      0.062552
H            -0.396809      0.242396     -0.202098
H             0.081686      0.230599     -0.047650
H             0.416461      0.089935      0.202154
O            -0.202808      0.095900     -0.094683
O            -0.304247      0.246524      0.153454
O             0.209238      0.235635      0.093512
O             0.298035      0.080870     -0.148535
O            -0.062774      0.089013      0.157324
O            -0.441168      0.268629     -0.112503
O             0.052339      0.261505     -0.145295
O             0.452405      0.081812      0.103773
Fe            0.143286      0.403538      0.200799
Fe            0.361744     -0.424124     -0.034642
Fe           -0.163564     -0.403669     -0.220793
Fe           -0.351731      0.424829      0.037966
H            -0.105371      0.407821      0.039091
H            -0.402978     -0.441114     -0.200765
H             0.073100     -0.415813     -0.038593
H             0.417245      0.387753      0.195797
O            -0.202713      0.422437     -0.090750
O            -0.290112     -0.414593      0.165637
O             0.212924     -0.436528      0.089551
O             0.301552      0.414341     -0.167788
O            -0.055955      0.402643      0.131440
O            -0.437993     -0.424584     -0.102116
O             0.049491     -0.396188     -0.140746
O             0.450110      0.403025      0.095944
Fe            0.136788     -0.240627     -0.261961
Fe            0.359591     -0.085055      0.477323
Fe           -0.146282     -0.084714      0.283446
Fe           -0.361060     -0.250434     -0.479033
H            -0.097108     -0.253877     -0.447571
H            -0.439828     -0.081469      0.291071
H             0.084184     -0.105139      0.457623
H             0.406012     -0.238146     -0.291988
O            -0.195431     -0.255407      0.402137
O            -0.299668     -0.087174     -0.345086
O             0.191955     -0.086394     -0.407052
O             0.318871     -0.235681      0.335865
O            -0.063868     -0.234662     -0.349099
O            -0.442838     -0.080108      0.394404
O             0.059987     -0.103456      0.354436
O             0.422060     -0.247033     -0.395469
Fe            0.151670      0.090977     -0.277302
Fe            0.362675      0.241557      0.474366
Fe           -0.154004      0.249196      0.277650
Fe           -0.353850      0.090949     -0.478995
H            -0.052142      0.082891     -0.449852
H            -0.411091      0.243911      0.295665
H             0.099727      0.289732      0.447145
H             0.410655      0.092321     -0.293615
O            -0.207191      0.086453      0.392687
O            -0.292648      0.248716     -0.354301
O             0.199977      0.236634     -0.403743
O             0.330099      0.073740      0.343501
O            -0.042671      0.100628     -0.348408
O            -0.443559      0.252042      0.395547
O             0.041221      0.263977      0.368061
O             0.443946      0.087753     -0.392939
Fe            0.134179      0.419431     -0.268947
Lu            0.346064     -0.422942      0.463148
Fe           -0.128438     -0.420979      0.287425
Fe           -0.344220      0.417997     -0.478859
H            -0.091109      0.415492     -0.446234
H            -0.389979     -0.420442      0.302196
H             0.088882     -0.430358      0.446312
H             0.422113      0.427488     -0.292666
O            -0.196026      0.418233      0.397987
O            -0.313871     -0.413539     -0.350503
O             0.169106     -0.422719     -0.405363
O             0.305914      0.383943      0.332283
O            -0.062391      0.436154     -0.349877
O            -0.440729     -0.410714      0.393031
O             0.066940     -0.424679      0.337361
O             0.451383      0.416321     -0.391292
data_nwchem_pspw

_audit_creation_date   Wed Aug 28 14:59:38 2024
_audit_creation_method    generated by PSPW module of NWChem


_cell_length_a            10.0667
_cell_length_b             9.1552
_cell_length_c             9.2041
_cell_angle_alpha         90.0000
_cell_angle_beta          90.0000
_cell_angle_gamma         90.0000

_symmetry_space_group_name_H-M     P1  

loop_
_atom_site_type_symbol
_atom_site_fract_x
_atom_site_fract_y
_atom_site_fract_z
Fe            0.155804     -0.256310      0.217080
Fe            0.352626     -0.087472     -0.014603
Fe           -0.138950     -0.105318     -0.211966
Fe           -0.348888     -0.259130      0.021094
H            -0.083907     -0.257413      0.045681
H            -0.415255     -0.092401     -0.214022
H             0.074044     -0.126331     -0.030462
H             0.415146     -0.241016      0.198389
O            -0.190773     -0.266184     -0.099258
O            -0.298654     -0.105588      0.147693
O             0.186904     -0.105621      0.086608
O             0.312500     -0.256246     -0.151058
O            -0.046325     -0.228248      0.138980
O            -0.451054     -0.082369     -0.115933
O             0.051596     -0.113099     -0.131367
O             0.448907     -0.242538      0.097359
Lu            0.153270      0.090383      0.204903
Fe            0.351590      0.272497     -0.025095
Fe           -0.152805      0.241240     -0.221049
Fe           -0.355137      0.072145      0.015339
H            -0.091389      0.091377      0.038311
H            -0.434049      0.266068     -0.207743
H             0.080826      0.254466     -0.055588
H             0.442777      0.087028      0.202303
O            -0.192934      0.074559     -0.091366
O            -0.319993      0.237004      0.144653
O             0.195326      0.274666      0.094857
O             0.309344      0.085417     -0.144350
O            -0.069278      0.086878      0.142317
O            -0.456825      0.235775     -0.111641
O             0.045306      0.241229     -0.152898
O             0.442705      0.090717      0.097621
Fe            0.126089      0.420173      0.249465
Fe            0.337480     -0.408937     -0.006935
Fe           -0.157088     -0.431346     -0.228456
Fe           -0.355479      0.418803      0.032430
H            -0.094972      0.432535      0.056317
H            -0.415256     -0.418521     -0.188824
H             0.067998     -0.446397     -0.043172
H             0.405401      0.380659      0.189724
O            -0.191397      0.399508     -0.084600
O            -0.285956     -0.417688      0.142704
O             0.175064     -0.422654      0.097773
O             0.305695      0.430317     -0.165987
O            -0.067593      0.425696      0.158272
O            -0.445612     -0.427739     -0.088933
O             0.038284     -0.440604     -0.142014
O             0.436920      0.423272      0.102114
Fe            0.144683     -0.261707     -0.262590
Fe            0.354285     -0.067977      0.465590
Fe           -0.141592     -0.082258      0.262341
Fe           -0.343393     -0.239503     -0.480635
H            -0.091986     -0.275289     -0.450639
H            -0.411368     -0.104500      0.301961
H             0.065633     -0.106906      0.468561
H             0.432546     -0.249478     -0.299774
O            -0.183658     -0.234348      0.406996
O            -0.299011     -0.090870     -0.338224
O             0.207686     -0.089442     -0.387791
O             0.309348     -0.232171      0.327671
O            -0.057019     -0.276395     -0.352770
O            -0.449415     -0.070013      0.392420
O             0.058678     -0.094878      0.366199
O             0.455785     -0.246935     -0.404266
Fe            0.159814      0.072196     -0.273528
Fe            0.351419      0.252435      0.476316
Fe           -0.167655      0.258871      0.283149
Fe           -0.347826      0.100562     -0.474738
H            -0.076237      0.088019     -0.444857
H            -0.433511      0.255398      0.290614
H             0.067195      0.266798      0.448181
H             0.438382      0.078805     -0.298605
O            -0.195740      0.089807      0.395554
O            -0.293137      0.256770     -0.345844
O             0.199403      0.247141     -0.403282
O             0.291331      0.098445      0.349925
O            -0.053731      0.065240     -0.345204
O            -0.455705      0.256262      0.393210
O             0.039157      0.251696      0.348716
O             0.456292      0.072074     -0.400472
Fe            0.144145      0.401668     -0.277683
Lu            0.362100     -0.412852      0.481384
Fe           -0.141829     -0.397988      0.285031
Fe           -0.358606      0.423660     -0.475172
H            -0.073245      0.383095     -0.455151
H            -0.396472     -0.416985      0.281978
H             0.083224     -0.394400      0.456920
H             0.409920      0.402498     -0.292150
O            -0.204649      0.422816      0.404766
O            -0.307900     -0.404443     -0.350038
O             0.179265     -0.409567     -0.411439
O             0.307046      0.401023      0.341605
O            -0.051101      0.410879     -0.357268
O            -0.437563     -0.412654      0.376496
O             0.042385     -0.409653      0.358298
O             0.455818      0.391320     -0.385827