data_nwchem_pspw

_audit_creation_date   Mon Feb 27 17:20:06 2023
_audit_creation_method    generated by PSPW module of NWChem


_cell_length_a            10.0667
_cell_length_b             9.1552
_cell_length_c             9.2041
_cell_angle_alpha         90.0000
_cell_angle_beta          90.0000
_cell_angle_gamma         90.0000

_symmetry_space_group_name_H-M     P1  

loop_
_atom_site_type_symbol
_atom_site_fract_x
_atom_site_fract_y
_atom_site_fract_z
Fe            0.146735     -0.250000      0.224756
Fe            0.353175     -0.083327     -0.025375
Fe           -0.146825     -0.083327     -0.224625
Fe           -0.353265     -0.250000      0.025244
H            -0.085221     -0.250000      0.049134
H            -0.414737     -0.083030     -0.201101
H             0.085263     -0.083030     -0.048899
H             0.414779     -0.250000      0.200866
O            -0.196748     -0.250000     -0.095276
O            -0.303195     -0.083277      0.154599
O             0.196805     -0.083277      0.095401
O             0.303252     -0.250000     -0.154724
O            -0.053396     -0.250000      0.148894
O            -0.446594     -0.082953     -0.101355
O             0.053406     -0.082954     -0.148645
O             0.446604     -0.250000      0.101106
Fe            0.146825      0.083327      0.224625
Fe            0.353265      0.250000     -0.025244
Fe           -0.146735      0.250000     -0.224756
Fe           -0.353175      0.083327      0.025375
H            -0.085263      0.083030      0.048899
H            -0.414779      0.250000     -0.200866
H             0.085221      0.250000     -0.049134
H             0.414737      0.083030      0.201101
O            -0.196805      0.083277     -0.095401
O            -0.303252      0.250000      0.154724
O             0.196748      0.250000      0.095276
O             0.303195      0.083277     -0.154599
O            -0.053406      0.082954      0.148645
O            -0.446604      0.250000     -0.101106
O             0.053396      0.250000     -0.148894
O             0.446594      0.082953      0.101355
Fe            0.146825      0.416673      0.224625
Fe            0.353175     -0.416673     -0.025375
Fe           -0.146825     -0.416673     -0.224625
Fe           -0.353175      0.416673      0.025375
H            -0.085263      0.416970      0.048899
H            -0.414737     -0.416970     -0.201101
H             0.085263     -0.416970     -0.048899
H             0.414737      0.416970      0.201101
O            -0.196805      0.416723     -0.095401
O            -0.303195     -0.416723      0.154599
O             0.196805     -0.416723      0.095401
O             0.303195      0.416723     -0.154599
O            -0.053406      0.417047      0.148645
O            -0.446594     -0.417047     -0.101355
O             0.053406     -0.417047     -0.148645
O             0.446594      0.417046      0.101355
Fe            0.146735     -0.250000     -0.275244
Fe            0.353175     -0.083327      0.474625
Fe           -0.146825     -0.083327      0.275375
Fe           -0.353265     -0.250000     -0.474756
H            -0.085221     -0.250000     -0.450866
H            -0.414737     -0.083030      0.298899
H             0.085263     -0.083030      0.451101
H             0.414779     -0.250000     -0.299134
O            -0.196748     -0.250000      0.404724
O            -0.303195     -0.083277     -0.345401
O             0.196805     -0.083277     -0.404599
O             0.303252     -0.250000      0.345276
O            -0.053396     -0.250000     -0.351106
O            -0.446594     -0.082953      0.398645
O             0.053406     -0.082954      0.351355
O             0.446604     -0.250000     -0.398894
Fe            0.146825      0.083327     -0.275375
H             0.353265      0.250000      0.474756
Fe           -0.146735      0.250000      0.275244
Fe           -0.353175      0.083327     -0.474625
H            -0.085263      0.083030     -0.451101
H            -0.414779      0.250000      0.299134
H             0.085221      0.250000      0.450866
H             0.414737      0.083030     -0.298899
O            -0.196805      0.083277      0.404599
O            -0.303252      0.250000     -0.345276
O             0.196748      0.250000     -0.404724
O             0.303195      0.083277      0.345401
O            -0.053406      0.082954     -0.351355
O            -0.446604      0.250000      0.398894
O             0.053396      0.250000      0.351106
O             0.446594      0.082953     -0.398645
Ni            0.146825      0.416673     -0.275375
Fe            0.353175     -0.416673      0.474625
Fe           -0.146825     -0.416673      0.275375
Fe           -0.353175      0.416673     -0.474625
H            -0.085263      0.416970     -0.451101
H            -0.414737     -0.416970      0.298899
H             0.085263     -0.416970      0.451101
H             0.414737      0.416970     -0.298899
O            -0.196805      0.416723      0.404599
O            -0.303195     -0.416723     -0.345401
O             0.196805     -0.416723     -0.404599
O             0.303195      0.416723      0.345401
O            -0.053406      0.417047     -0.351355
O            -0.446594     -0.417047      0.398645
O             0.053406     -0.417047      0.351355
O             0.446594      0.417046     -0.398645
H             0.200391      0.365788     -0.048061
H             0.253265      0.250000      0.404756
H             0.353265      0.350000      0.474756
data_nwchem_pspw

_audit_creation_date   Mon Feb 27 17:25:32 2023
_audit_creation_method    generated by PSPW module of NWChem


_cell_length_a            10.0667
_cell_length_b             9.1552
_cell_length_c             9.2041
_cell_angle_alpha         90.0000
_cell_angle_beta          90.0000
_cell_angle_gamma         90.0000

_symmetry_space_group_name_H-M     P1  

loop_
_atom_site_type_symbol
_atom_site_fract_x
_atom_site_fract_y
_atom_site_fract_z
Fe            0.146735     -0.250000      0.224756
Fe            0.353175     -0.083327     -0.025375
Fe           -0.146825     -0.083327     -0.224625
Fe           -0.353265     -0.250000      0.025244
H            -0.085221     -0.250000      0.049134
H            -0.414737     -0.083030     -0.201101
H             0.085263     -0.083030     -0.048899
H             0.414779     -0.250000      0.200866
O            -0.196748     -0.250000     -0.095276
O            -0.303195     -0.083277      0.154599
O             0.196805     -0.083277      0.095401
O             0.303252     -0.250000     -0.154724
O            -0.053396     -0.250000      0.148894
O            -0.446594     -0.082953     -0.101355
O             0.053406     -0.082954     -0.148645
O             0.446604     -0.250000      0.101106
Fe            0.146825      0.083327      0.224625
Fe            0.353265      0.250000     -0.025244
Fe           -0.146735      0.250000     -0.224756
Fe           -0.353175      0.083327      0.025375
H            -0.085263      0.083030      0.048899
H            -0.414779      0.250000     -0.200866
H             0.085221      0.250000     -0.049134
H             0.414737      0.083030      0.201101
O            -0.196805      0.083277     -0.095401
O            -0.303252      0.250000      0.154724
O             0.196748      0.250000      0.095276
O             0.303195      0.083277     -0.154599
O            -0.053406      0.082954      0.148645
O            -0.446604      0.250000     -0.101106
O             0.053396      0.250000     -0.148894
O             0.446594      0.082953      0.101355
Fe            0.146825      0.416673      0.224625
Fe            0.353175     -0.416673     -0.025375
Fe           -0.146825     -0.416673     -0.224625
Fe           -0.353175      0.416673      0.025375
H            -0.085263      0.416970      0.048899
H            -0.414737     -0.416970     -0.201101
H             0.085263     -0.416970     -0.048899
H             0.414737      0.416970      0.201101
O            -0.196805      0.416723     -0.095401
O            -0.303195     -0.416723      0.154599
O             0.196805     -0.416723      0.095401
O             0.303195      0.416723     -0.154599
O            -0.053406      0.417047      0.148645
O            -0.446594     -0.417047     -0.101355
O             0.053406     -0.417047     -0.148645
O             0.446594      0.417046      0.101355
Fe            0.146735     -0.250000     -0.275244
Fe            0.353175     -0.083327      0.474625
Fe           -0.146825     -0.083327      0.275375
Fe           -0.353265     -0.250000     -0.474756
H            -0.085221     -0.250000     -0.450866
H            -0.414737     -0.083030      0.298899
H             0.085263     -0.083030      0.451101
H             0.414779     -0.250000     -0.299134
O            -0.196748     -0.250000      0.404724
O            -0.303195     -0.083277     -0.345401
O             0.196805     -0.083277     -0.404599
O             0.303252     -0.250000      0.345276
O            -0.053396     -0.250000     -0.351106
O            -0.446594     -0.082953      0.398645
O             0.053406     -0.082954      0.351355
O             0.446604     -0.250000     -0.398894
Fe            0.146825      0.083327     -0.275375
H             0.353265      0.250000      0.474756
Fe           -0.146735      0.250000      0.275244
Fe           -0.353175      0.083327     -0.474625
H            -0.085263      0.083030     -0.451101
H            -0.414779      0.250000      0.299134
H             0.085221      0.250000      0.450866
H             0.414737      0.083030     -0.298899
O            -0.196805      0.083277      0.404599
O            -0.303252      0.250000     -0.345276
O             0.196748      0.250000     -0.404724
O             0.303195      0.083277      0.345401
O            -0.053406      0.082954     -0.351355
O            -0.446604      0.250000      0.398894
O             0.053396      0.250000      0.351106
O             0.446594      0.082953     -0.398645
Ni            0.146825      0.416673     -0.275375
Fe            0.353175     -0.416673      0.474625
Fe           -0.146825     -0.416673      0.275375
Fe           -0.353175      0.416673     -0.474625
H            -0.085263      0.416970     -0.451101
H            -0.414737     -0.416970      0.298899
H             0.085263     -0.416970      0.451101
H             0.414737      0.416970     -0.298899
O            -0.196805      0.416723      0.404599
O            -0.303195     -0.416723     -0.345401
O             0.196805     -0.416723     -0.404599
O             0.303195      0.416723      0.345401
O            -0.053406      0.417047     -0.351355
O            -0.446594     -0.417047      0.398645
O             0.053406     -0.417047      0.351355
O             0.446594      0.417046     -0.398645
H             0.200391      0.365788     -0.048061
H             0.253265      0.250000      0.404756
H             0.353265      0.350000      0.474756
data_nwchem_pspw

_audit_creation_date   Mon Feb 27 17:28:23 2023
_audit_creation_method    generated by PSPW module of NWChem


_cell_length_a            10.0667
_cell_length_b             9.1552
_cell_length_c             9.2041
_cell_angle_alpha         90.0000
_cell_angle_beta          90.0000
_cell_angle_gamma         90.0000

_symmetry_space_group_name_H-M     P1  

loop_
_atom_site_type_symbol
_atom_site_fract_x
_atom_site_fract_y
_atom_site_fract_z
Fe            0.146735     -0.250000      0.224756
Fe            0.353175     -0.083327     -0.025375
Fe           -0.146825     -0.083327     -0.224625
Fe           -0.353265     -0.250000      0.025244
H            -0.085221     -0.250000      0.049134
H            -0.414737     -0.083030     -0.201101
H             0.085263     -0.083030     -0.048899
H             0.414779     -0.250000      0.200866
O            -0.196748     -0.250000     -0.095276
O            -0.303195     -0.083277      0.154599
O             0.196805     -0.083277      0.095401
O             0.303252     -0.250000     -0.154724
O            -0.053396     -0.250000      0.148894
O            -0.446594     -0.082953     -0.101355
O             0.053406     -0.082954     -0.148645
O             0.446604     -0.250000      0.101106
Fe            0.146825      0.083327      0.224625
Fe            0.353265      0.250000     -0.025244
Fe           -0.146735      0.250000     -0.224756
Fe           -0.353175      0.083327      0.025375
H            -0.085263      0.083030      0.048899
H            -0.414779      0.250000     -0.200866
H             0.085221      0.250000     -0.049134
H             0.414737      0.083030      0.201101
O            -0.196805      0.083277     -0.095401
O            -0.303252      0.250000      0.154724
O             0.196748      0.250000      0.095276
O             0.303195      0.083277     -0.154599
O            -0.053406      0.082954      0.148645
O            -0.446604      0.250000     -0.101106
O             0.053396      0.250000     -0.148894
O             0.446594      0.082953      0.101355
Fe            0.146825      0.416673      0.224625
Fe            0.353175     -0.416673     -0.025375
Fe           -0.146825     -0.416673     -0.224625
Fe           -0.353175      0.416673      0.025375
H            -0.085263      0.416970      0.048899
H            -0.414737     -0.416970     -0.201101
H             0.085263     -0.416970     -0.048899
H             0.414737      0.416970      0.201101
O            -0.196805      0.416723     -0.095401
O            -0.303195     -0.416723      0.154599
O             0.196805     -0.416723      0.095401
O             0.303195      0.416723     -0.154599
O            -0.053406      0.417047      0.148645
O            -0.446594     -0.417047     -0.101355
O             0.053406     -0.417047     -0.148645
O             0.446594      0.417046      0.101355
Fe            0.146735     -0.250000     -0.275244
Fe            0.353175     -0.083327      0.474625
Fe           -0.146825     -0.083327      0.275375
Fe           -0.353265     -0.250000     -0.474756
H            -0.085221     -0.250000     -0.450866
H            -0.414737     -0.083030      0.298899
H             0.085263     -0.083030      0.451101
H             0.414779     -0.250000     -0.299134
O            -0.196748     -0.250000      0.404724
O            -0.303195     -0.083277     -0.345401
O             0.196805     -0.083277     -0.404599
O             0.303252     -0.250000      0.345276
O            -0.053396     -0.250000     -0.351106
O            -0.446594     -0.082953      0.398645
O             0.053406     -0.082954      0.351355
O             0.446604     -0.250000     -0.398894
Fe            0.146825      0.083327     -0.275375
H             0.353265      0.250000      0.474756
Fe           -0.146735      0.250000      0.275244
Fe           -0.353175      0.083327     -0.474625
H            -0.085263      0.083030     -0.451101
H            -0.414779      0.250000      0.299134
H             0.085221      0.250000      0.450866
H             0.414737      0.083030     -0.298899
O            -0.196805      0.083277      0.404599
O            -0.303252      0.250000     -0.345276
O             0.196748      0.250000     -0.404724
O             0.303195      0.083277      0.345401
O            -0.053406      0.082954     -0.351355
O            -0.446604      0.250000      0.398894
O             0.053396      0.250000      0.351106
O             0.446594      0.082953     -0.398645
Ni            0.146825      0.416673     -0.275375
Fe            0.353175     -0.416673      0.474625
Fe           -0.146825     -0.416673      0.275375
Fe           -0.353175      0.416673     -0.474625
H            -0.085263      0.416970     -0.451101
H            -0.414737     -0.416970      0.298899
H             0.085263     -0.416970      0.451101
H             0.414737      0.416970     -0.298899
O            -0.196805      0.416723      0.404599
O            -0.303195     -0.416723     -0.345401
O             0.196805     -0.416723     -0.404599
O             0.303195      0.416723      0.345401
O            -0.053406      0.417047     -0.351355
O            -0.446594     -0.417047      0.398645
O             0.053406     -0.417047      0.351355
O             0.446594      0.417046     -0.398645
H             0.200391      0.365788     -0.048061
H             0.253265      0.250000      0.404756
H             0.353265      0.350000      0.474756
data_nwchem_pspw

_audit_creation_date   Mon Feb 27 17:29:35 2023
_audit_creation_method    generated by PSPW module of NWChem


_cell_length_a            10.0667
_cell_length_b             9.1552
_cell_length_c             9.2041
_cell_angle_alpha         90.0000
_cell_angle_beta          90.0000
_cell_angle_gamma         90.0000

_symmetry_space_group_name_H-M     P1  

loop_
_atom_site_type_symbol
_atom_site_fract_x
_atom_site_fract_y
_atom_site_fract_z
Fe            0.146735     -0.250000      0.224756
Fe            0.353175     -0.083327     -0.025375
Fe           -0.146825     -0.083327     -0.224625
Fe           -0.353265     -0.250000      0.025244
H            -0.085221     -0.250000      0.049134
H            -0.414737     -0.083030     -0.201101
H             0.085263     -0.083030     -0.048899
H             0.414779     -0.250000      0.200866
O            -0.196748     -0.250000     -0.095276
O            -0.303195     -0.083277      0.154599
O             0.196805     -0.083277      0.095401
O             0.303252     -0.250000     -0.154724
O            -0.053396     -0.250000      0.148894
O            -0.446594     -0.082953     -0.101355
O             0.053406     -0.082954     -0.148645
O             0.446604     -0.250000      0.101106
Fe            0.146825      0.083327      0.224625
Fe            0.353265      0.250000     -0.025244
Fe           -0.146735      0.250000     -0.224756
Fe           -0.353175      0.083327      0.025375
H            -0.085263      0.083030      0.048899
H            -0.414779      0.250000     -0.200866
H             0.085221      0.250000     -0.049134
H             0.414737      0.083030      0.201101
O            -0.196805      0.083277     -0.095401
O            -0.303252      0.250000      0.154724
O             0.196748      0.250000      0.095276
O             0.303195      0.083277     -0.154599
O            -0.053406      0.082954      0.148645
O            -0.446604      0.250000     -0.101106
O             0.053396      0.250000     -0.148894
O             0.446594      0.082953      0.101355
Fe            0.146825      0.416673      0.224625
Fe            0.353175     -0.416673     -0.025375
Fe           -0.146825     -0.416673     -0.224625
Fe           -0.353175      0.416673      0.025375
H            -0.085263      0.416970      0.048899
H            -0.414737     -0.416970     -0.201101
H             0.085263     -0.416970     -0.048899
H             0.414737      0.416970      0.201101
O            -0.196805      0.416723     -0.095401
O            -0.303195     -0.416723      0.154599
O             0.196805     -0.416723      0.095401
O             0.303195      0.416723     -0.154599
O            -0.053406      0.417047      0.148645
O            -0.446594     -0.417047     -0.101355
O             0.053406     -0.417047     -0.148645
O             0.446594      0.417046      0.101355
Fe            0.146735     -0.250000     -0.275244
Fe            0.353175     -0.083327      0.474625
Fe           -0.146825     -0.083327      0.275375
Fe           -0.353265     -0.250000     -0.474756
H            -0.085221     -0.250000     -0.450866
H            -0.414737     -0.083030      0.298899
H             0.085263     -0.083030      0.451101
H             0.414779     -0.250000     -0.299134
O            -0.196748     -0.250000      0.404724
O            -0.303195     -0.083277     -0.345401
O             0.196805     -0.083277     -0.404599
O             0.303252     -0.250000      0.345276
O            -0.053396     -0.250000     -0.351106
O            -0.446594     -0.082953      0.398645
O             0.053406     -0.082954      0.351355
O             0.446604     -0.250000     -0.398894
Fe            0.146825      0.083327     -0.275375
H             0.353265      0.250000      0.474756
Fe           -0.146735      0.250000      0.275244
Fe           -0.353175      0.083327     -0.474625
H            -0.085263      0.083030     -0.451101
H            -0.414779      0.250000      0.299134
H             0.085221      0.250000      0.450866
H             0.414737      0.083030     -0.298899
O            -0.196805      0.083277      0.404599
O            -0.303252      0.250000     -0.345276
O             0.196748      0.250000     -0.404724
O             0.303195      0.083277      0.345401
O            -0.053406      0.082954     -0.351355
O            -0.446604      0.250000      0.398894
O             0.053396      0.250000      0.351106
O             0.446594      0.082953     -0.398645
Ni            0.146825      0.416673     -0.275375
Fe            0.353175     -0.416673      0.474625
Fe           -0.146825     -0.416673      0.275375
Fe           -0.353175      0.416673     -0.474625
H            -0.085263      0.416970     -0.451101
H            -0.414737     -0.416970      0.298899
H             0.085263     -0.416970      0.451101
H             0.414737      0.416970     -0.298899
O            -0.196805      0.416723      0.404599
O            -0.303195     -0.416723     -0.345401
O             0.196805     -0.416723     -0.404599
O             0.303195      0.416723      0.345401
O            -0.053406      0.417047     -0.351355
O            -0.446594     -0.417047      0.398645
O             0.053406     -0.417047      0.351355
O             0.446594      0.417046     -0.398645
H             0.200391      0.365788     -0.048061
H             0.253265      0.250000      0.404756
H             0.353265      0.350000      0.474756
data_nwchem_pspw

_audit_creation_date   Mon Feb 27 17:57:49 2023
_audit_creation_method    generated by PSPW module of NWChem


_cell_length_a            10.0667
_cell_length_b             9.1552
_cell_length_c             9.2041
_cell_angle_alpha         90.0000
_cell_angle_beta          90.0000
_cell_angle_gamma         90.0000

_symmetry_space_group_name_H-M     P1  

loop_
_atom_site_type_symbol
_atom_site_fract_x
_atom_site_fract_y
_atom_site_fract_z
Fe            0.146735     -0.250000      0.224756
Fe            0.353175     -0.083327     -0.025375
Fe           -0.146825     -0.083327     -0.224625
Fe           -0.353265     -0.250000      0.025244
H            -0.085221     -0.250000      0.049134
H            -0.414737     -0.083030     -0.201101
H             0.085263     -0.083030     -0.048899
H             0.414779     -0.250000      0.200866
O            -0.196748     -0.250000     -0.095276
O            -0.303195     -0.083277      0.154599
O             0.196805     -0.083277      0.095401
O             0.303252     -0.250000     -0.154724
O            -0.053396     -0.250000      0.148894
O            -0.446594     -0.082953     -0.101355
O             0.053406     -0.082954     -0.148645
O             0.446604     -0.250000      0.101106
Fe            0.146825      0.083327      0.224625
Fe            0.353265      0.250000     -0.025244
Fe           -0.146735      0.250000     -0.224756
Fe           -0.353175      0.083327      0.025375
H            -0.085263      0.083030      0.048899
H            -0.414779      0.250000     -0.200866
H             0.085221      0.250000     -0.049134
H             0.414737      0.083030      0.201101
O            -0.196805      0.083277     -0.095401
O            -0.303252      0.250000      0.154724
O             0.196748      0.250000      0.095276
O             0.303195      0.083277     -0.154599
O            -0.053406      0.082954      0.148645
O            -0.446604      0.250000     -0.101106
O             0.053396      0.250000     -0.148894
O             0.446594      0.082953      0.101355
Fe            0.146825      0.416673      0.224625
Fe            0.353175     -0.416673     -0.025375
Fe           -0.146825     -0.416673     -0.224625
Fe           -0.353175      0.416673      0.025375
H            -0.085263      0.416970      0.048899
H            -0.414737     -0.416970     -0.201101
H             0.085263     -0.416970     -0.048899
H             0.414737      0.416970      0.201101
O            -0.196805      0.416723     -0.095401
O            -0.303195     -0.416723      0.154599
O             0.196805     -0.416723      0.095401
O             0.303195      0.416723     -0.154599
O            -0.053406      0.417047      0.148645
O            -0.446594     -0.417047     -0.101355
O             0.053406     -0.417047     -0.148645
O             0.446594      0.417046      0.101355
Fe            0.146735     -0.250000     -0.275244
Fe            0.353175     -0.083327      0.474625
Fe           -0.146825     -0.083327      0.275375
Fe           -0.353265     -0.250000     -0.474756
H            -0.085221     -0.250000     -0.450866
H            -0.414737     -0.083030      0.298899
H             0.085263     -0.083030      0.451101
H             0.414779     -0.250000     -0.299134
O            -0.196748     -0.250000      0.404724
O            -0.303195     -0.083277     -0.345401
O             0.196805     -0.083277     -0.404599
O             0.303252     -0.250000      0.345276
O            -0.053396     -0.250000     -0.351106
O            -0.446594     -0.082953      0.398645
O             0.053406     -0.082954      0.351355
O             0.446604     -0.250000     -0.398894
Fe            0.146825      0.083327     -0.275375
H             0.353265      0.250000      0.474756
Fe           -0.146735      0.250000      0.275244
Fe           -0.353175      0.083327     -0.474625
H            -0.085263      0.083030     -0.451101
H            -0.414779      0.250000      0.299134
H             0.085221      0.250000      0.450866
H             0.414737      0.083030     -0.298899
O            -0.196805      0.083277      0.404599
O            -0.303252      0.250000     -0.345276
O             0.196748      0.250000     -0.404724
O             0.303195      0.083277      0.345401
O            -0.053406      0.082954     -0.351355
O            -0.446604      0.250000      0.398894
O             0.053396      0.250000      0.351106
O             0.446594      0.082953     -0.398645
Ni            0.146825      0.416673     -0.275375
Fe            0.353175     -0.416673      0.474625
Fe           -0.146825     -0.416673      0.275375
Fe           -0.353175      0.416673     -0.474625
H            -0.085263      0.416970     -0.451101
H            -0.414737     -0.416970      0.298899
H             0.085263     -0.416970      0.451101
H             0.414737      0.416970     -0.298899
O            -0.196805      0.416723      0.404599
O            -0.303195     -0.416723     -0.345401
O             0.196805     -0.416723     -0.404599
O             0.303195      0.416723      0.345401
O            -0.053406      0.417047     -0.351355
O            -0.446594     -0.417047      0.398645
O             0.053406     -0.417047      0.351355
O             0.446594      0.417046     -0.398645
H             0.200391      0.365788     -0.048061
H             0.253265      0.250000      0.404756
H             0.353265      0.350000      0.474756
data_nwchem_pspw

_audit_creation_date   Mon Feb 27 20:27:03 2023
_audit_creation_method    generated by PSPW module of NWChem


_cell_length_a            10.0667
_cell_length_b             9.1552
_cell_length_c             9.2041
_cell_angle_alpha         90.0000
_cell_angle_beta          90.0000
_cell_angle_gamma         90.0000

_symmetry_space_group_name_H-M     P1  

loop_
_atom_site_type_symbol
_atom_site_fract_x
_atom_site_fract_y
_atom_site_fract_z
Fe            0.151742     -0.259547      0.218811
Fe            0.351456     -0.083300     -0.022786
Fe           -0.148199     -0.070626     -0.217670
Fe           -0.370133     -0.251929      0.018296
H            -0.090948     -0.263538      0.060790
H            -0.420264     -0.086924     -0.202770
H             0.099490     -0.060019     -0.045232
H             0.428928     -0.268022      0.215599
O            -0.197445     -0.239081     -0.088004
O            -0.300705     -0.086148      0.144199
O             0.201513     -0.096679      0.097819
O             0.299315     -0.246476     -0.148626
O            -0.047992     -0.239179      0.152738
O            -0.453611     -0.080507     -0.101547
O             0.057704     -0.069790     -0.140182
O             0.447917     -0.267605      0.110404
Fe            0.141678      0.076012      0.217123
Fe            0.350995      0.249482     -0.034678
Fe           -0.144914      0.254121     -0.227474
Fe           -0.357993      0.089882      0.022193
H            -0.092613      0.056213      0.048459
H            -0.412439      0.261281     -0.201231
H             0.060921      0.260042     -0.056015
H             0.411739      0.106292      0.189252
O            -0.190809      0.092893     -0.082525
O            -0.303026      0.250027      0.157338
O             0.198423      0.231352      0.074559
O             0.324533      0.077138     -0.173148
O            -0.050149      0.081084      0.147602
O            -0.445533      0.254771     -0.098890
O             0.057685      0.264150     -0.162539
O             0.443458      0.080818      0.094588
Fe            0.146507      0.403167      0.233735
Fe            0.371966     -0.414196     -0.041293
Fe           -0.159000     -0.405377     -0.205862
Fe           -0.348414      0.423508      0.028779
H            -0.071825      0.423056      0.043887
H            -0.426186     -0.414449     -0.216688
H             0.022860     -0.297824     -0.061778
H             0.402563      0.422384      0.195401
O            -0.176187      0.416981     -0.081348
O            -0.305829     -0.413790      0.156615
O             0.199653     -0.432373      0.086545
O             0.304316      0.419343     -0.158749
O            -0.049419      0.402943      0.147779
O            -0.451230     -0.407173     -0.115902
O             0.037874     -0.385535     -0.116898
O             0.450925      0.406196      0.105816
Fe            0.142135     -0.260366     -0.277941
Fe            0.352774     -0.082526      0.459716
Fe           -0.148501     -0.090611      0.285801
Fe           -0.358790     -0.254895     -0.472591
H            -0.097965     -0.229174     -0.428710
H            -0.420381     -0.083636      0.283652
H             0.081458     -0.075812      0.458037
H             0.401992     -0.217577     -0.294652
O            -0.192376     -0.254236      0.414050
O            -0.302814     -0.081656     -0.355824
O             0.201732     -0.081624     -0.401155
O             0.302720     -0.263181      0.344942
O            -0.056475     -0.234049     -0.334114
O            -0.445296     -0.091649      0.384149
O             0.060330     -0.082020      0.356403
O             0.439963     -0.243672     -0.389160
Fe            0.139632      0.081732     -0.278474
H             0.390446      0.160454     -0.412634
Fe           -0.144357      0.251528      0.283281
Fe           -0.363945      0.091828     -0.485120
H            -0.111962      0.102972     -0.447006
H            -0.403637      0.269165      0.295988
H             0.108794      0.224914      0.454968
H             0.391766      0.058411     -0.267304
O            -0.187037      0.075678      0.415168
O            -0.305850      0.261323     -0.342263
O             0.191922      0.252519     -0.403836
O             0.323048      0.086449      0.337444
O            -0.069544      0.084040     -0.354663
O            -0.438061      0.257162      0.390931
O             0.066883      0.230564      0.356288
O             0.438156      0.062121     -0.397867
Ni            0.157287      0.409371     -0.289159
Fe            0.356240     -0.422453      0.484127
Fe           -0.139025     -0.416349      0.281960
Fe           -0.364167      0.426075     -0.473471
H            -0.083074      0.428268     -0.444975
H            -0.404246     -0.417118      0.298990
H             0.097187     -0.417265      0.452182
H             0.409774      0.417616     -0.292538
O            -0.199646      0.415736      0.416718
O            -0.299020     -0.403816     -0.343341
O             0.195407     -0.432297     -0.408376
O             0.323738      0.408848      0.342354
O            -0.052310      0.423888     -0.344871
O            -0.449880     -0.420204      0.396041
O             0.064853     -0.418767      0.350935
O             0.453016      0.427518     -0.385793
H             0.126300     -0.433847      0.013326
H             0.332816      0.177329      0.383896
H             0.388093      0.336539      0.384560
data_nwchem_pspw

_audit_creation_date   Mon Feb 27 23:27:49 2023
_audit_creation_method    generated by PSPW module of NWChem


_cell_length_a            10.0667
_cell_length_b             9.1552
_cell_length_c             9.2041
_cell_angle_alpha         90.0000
_cell_angle_beta          90.0000
_cell_angle_gamma         90.0000

_symmetry_space_group_name_H-M     P1  

loop_
_atom_site_type_symbol
_atom_site_fract_x
_atom_site_fract_y
_atom_site_fract_z
Fe            0.155237     -0.257374      0.221743
Fe            0.355039     -0.093932     -0.009531
Fe           -0.139161     -0.083924     -0.214605
Fe           -0.343635     -0.253786      0.040106
H            -0.115938     -0.214501      0.068218
H            -0.424236     -0.103738     -0.208282
H             0.092117     -0.078731     -0.051325
H             0.413527     -0.255138      0.210034
O            -0.200361     -0.257851     -0.092067
O            -0.315807     -0.080725      0.157915
O             0.191108     -0.087209      0.089200
O             0.299951     -0.257353     -0.147781
O            -0.064428     -0.245374      0.150342
O            -0.457242     -0.091695     -0.108511
O             0.052696     -0.077337     -0.151815
O             0.460501     -0.255179      0.114625
Fe            0.137918      0.095175      0.217838
Fe            0.355661      0.261050     -0.022636
Fe           -0.141715      0.252370     -0.231486
Fe           -0.357603      0.072453      0.007798
H            -0.102637      0.099042      0.056689
H            -0.419796      0.243107     -0.223420
H             0.105447      0.263031     -0.057379
H             0.434488      0.102059      0.205523
O            -0.183614      0.085021     -0.098966
O            -0.298220      0.245796      0.144978
O             0.183442      0.246887      0.092844
O             0.302773      0.077959     -0.150820
O            -0.057287      0.090147      0.156552
O            -0.441378      0.244511     -0.118033
O             0.058770      0.265913     -0.152713
O             0.448080      0.093290      0.103101
Fe            0.140744      0.432012      0.233624
Fe            0.371874     -0.422700     -0.040179
Fe           -0.160184     -0.428708     -0.236634
Fe           -0.344312      0.420043      0.025595
H            -0.082775      0.416763      0.054488
H            -0.403668     -0.407019     -0.205328
H            -0.011470     -0.325972     -0.044266
H             0.418947      0.428177      0.186393
O            -0.181647      0.411779     -0.089394
O            -0.294969     -0.429079      0.159430
O             0.206174     -0.425329      0.084105
O             0.294342      0.413842     -0.161077
O            -0.052314      0.428927      0.154848
O            -0.430634     -0.414185     -0.105267
O             0.048142     -0.373821     -0.109495
O             0.458667      0.416850      0.083933
Fe            0.135881     -0.258626     -0.280440
Fe            0.365016     -0.078309      0.478139
Fe           -0.138075     -0.078194      0.276433
Fe           -0.356057     -0.248553     -0.470094
H            -0.081386     -0.256201     -0.451418
H            -0.411041     -0.071936      0.288718
H             0.100170     -0.076303      0.448879
H             0.412404     -0.234018     -0.282827
O            -0.190460     -0.235446      0.409548
O            -0.305401     -0.094590     -0.339009
O             0.203587     -0.089814     -0.411754
O             0.296229     -0.252820      0.357398
O            -0.056256     -0.258631     -0.346722
O            -0.445392     -0.056439      0.385632
O             0.059696     -0.071131      0.349033
O             0.442501     -0.245703     -0.381462
Fe            0.128531      0.084610     -0.290198
H             0.416941      0.175341     -0.405560
Fe           -0.147728      0.250585      0.275883
Fe           -0.363001      0.088039     -0.482045
H            -0.099205      0.084469     -0.466610
H            -0.408829      0.257836      0.295527
H             0.093990      0.258244      0.445165
H             0.378507      0.084721     -0.227308
O            -0.188872      0.077438      0.418751
O            -0.299895      0.233439     -0.345577
O             0.182519      0.244453     -0.417154
O             0.280891      0.086564      0.360052
O            -0.058382      0.076135     -0.354163
O            -0.441917      0.250187      0.393295
O             0.054849      0.261723      0.348705
O             0.455467      0.078178     -0.383234
Ni            0.139326      0.399590     -0.280326
Fe            0.356274     -0.422525      0.486685
Fe           -0.135794     -0.414741      0.288161
Fe           -0.371140      0.406749     -0.478250
H            -0.057160      0.419732     -0.470553
H            -0.412360     -0.415846      0.298065
H             0.091323     -0.403417      0.461814
H             0.396218      0.426969     -0.301392
O            -0.206558      0.416644      0.409502
O            -0.311510     -0.429364     -0.354392
O             0.180533     -0.429497     -0.404944
O             0.335503      0.442045      0.325976
O            -0.040100      0.416274     -0.364690
O            -0.446020     -0.400950      0.398486
O             0.054660     -0.404428      0.361158
O             0.439556      0.426571     -0.398457
H             0.136887     -0.420598     -0.005275
H             0.262387      0.163347      0.434170
H             0.370844      0.343133      0.353440
data_nwchem_pspw

_audit_creation_date   Tue Feb 28 02:29:35 2023
_audit_creation_method    generated by PSPW module of NWChem


_cell_length_a            10.0667
_cell_length_b             9.1552
_cell_length_c             9.2041
_cell_angle_alpha         90.0000
_cell_angle_beta          90.0000
_cell_angle_gamma         90.0000

_symmetry_space_group_name_H-M     P1  

loop_
_atom_site_type_symbol
_atom_site_fract_x
_atom_site_fract_y
_atom_site_fract_z
Fe            0.141990     -0.242642      0.239813
Fe            0.357742     -0.094068     -0.017065
Fe           -0.127096     -0.079572     -0.219261
Fe           -0.343655     -0.252887      0.032065
H            -0.094974     -0.251997      0.048944
H            -0.407896     -0.067728     -0.205095
H             0.095065     -0.080095     -0.041501
H             0.431489     -0.246927      0.203311
O            -0.193001     -0.246404     -0.091956
O            -0.311468     -0.072950      0.154494
O             0.194982     -0.082920      0.089369
O             0.300478     -0.254812     -0.151254
O            -0.061695     -0.266055      0.149620
O            -0.450726     -0.071342     -0.106654
O             0.062478     -0.087951     -0.142356
O             0.450105     -0.248735      0.094169
Fe            0.140899      0.090867      0.205669
Fe            0.352715      0.252718     -0.029195
Fe           -0.146309      0.254134     -0.234021
Fe           -0.364361      0.086207      0.030775
H            -0.097562      0.070018      0.041996
H            -0.442379      0.244620     -0.201421
H             0.081210      0.267743     -0.057122
H             0.428789      0.104234      0.212880
O            -0.203966      0.089924     -0.103367
O            -0.305514      0.249517      0.142952
O             0.182384      0.246205      0.072823
O             0.301556      0.076295     -0.155685
O            -0.056711      0.096352      0.130243
O            -0.448888      0.255606     -0.097836
O             0.055385      0.260329     -0.164172
O             0.448525      0.093751      0.110472
Fe            0.134323      0.418759      0.231215
Fe            0.368184     -0.423031     -0.025940
Fe           -0.141390     -0.412426     -0.238757
Fe           -0.355443      0.414978      0.014967
H            -0.119666      0.415839      0.063311
H            -0.388398     -0.432329     -0.206491
H            -0.000938     -0.498516     -0.065045
H             0.399848      0.446734      0.194429
O            -0.197352      0.425689     -0.102046
O            -0.306085     -0.430781      0.159844
O             0.189394     -0.411347      0.106441
O             0.303788      0.415716     -0.154301
O            -0.065300      0.422231      0.146317
O            -0.427960     -0.414696     -0.113460
O             0.045756     -0.454014     -0.144116
O             0.440910      0.432063      0.094635
Fe            0.147048     -0.250507     -0.277882
Fe            0.364841     -0.077934      0.474780
Fe           -0.146370     -0.086163      0.272597
Fe           -0.356697     -0.251528     -0.460745
H            -0.079128     -0.245045     -0.451187
H            -0.402146     -0.102214      0.303573
H             0.108411     -0.074288      0.443218
H             0.413315     -0.255062     -0.293267
O            -0.186507     -0.245939      0.412012
O            -0.307475     -0.083567     -0.330860
O             0.197353     -0.100309     -0.406715
O             0.310948     -0.262472      0.347701
O            -0.050230     -0.259614     -0.350398
O            -0.439592     -0.100294      0.405026
O             0.064993     -0.067603      0.346126
O             0.443593     -0.242260     -0.395129
Fe            0.141264      0.087892     -0.287727
H             0.416388      0.187731     -0.425435
Fe           -0.144807      0.243027      0.269512
Fe           -0.362746      0.081174     -0.475761
H            -0.091679      0.076844     -0.483600
H            -0.409554      0.283737      0.303090
H             0.067547      0.232591      0.444546
H             0.366494      0.068403     -0.231285
O            -0.183922      0.084949      0.409866
O            -0.294751      0.249704     -0.345412
O             0.175047      0.248241     -0.416558
O             0.287542      0.088353      0.353910
O            -0.050148      0.078849     -0.370744
O            -0.437554      0.261206      0.400548
O             0.046313      0.243639      0.344690
O             0.438903      0.093386     -0.392056
Ni            0.137557      0.402461     -0.274562
Fe            0.361742     -0.412322      0.484416
Fe           -0.149636     -0.418190      0.288379
Fe           -0.359426      0.408484     -0.464299
H            -0.101076      0.420731     -0.463284
H            -0.385479     -0.416873      0.301963
H             0.094566     -0.402095      0.472203
H             0.416151      0.414743     -0.306680
O            -0.196144      0.411271      0.405279
O            -0.304649     -0.421599     -0.350239
O             0.203679     -0.426158     -0.385447
O             0.318278      0.421916      0.331196
O            -0.053279      0.425613     -0.369209
O            -0.433162     -0.413395      0.401905
O             0.064739     -0.400247      0.373059
O             0.445538      0.432044     -0.406290
H             0.130730     -0.411891      0.026547
H             0.259006      0.150423      0.436521
H             0.326963      0.327230      0.364664
data_nwchem_pspw

_audit_creation_date   Tue Feb 28 05:27:05 2023
_audit_creation_method    generated by PSPW module of NWChem


_cell_length_a            10.0667
_cell_length_b             9.1552
_cell_length_c             9.2041
_cell_angle_alpha         90.0000
_cell_angle_beta          90.0000
_cell_angle_gamma         90.0000

_symmetry_space_group_name_H-M     P1  

loop_
_atom_site_type_symbol
_atom_site_fract_x
_atom_site_fract_y
_atom_site_fract_z
Fe            0.146403     -0.255067      0.231908
Fe            0.357339     -0.098303     -0.012411
Fe           -0.150113     -0.076934     -0.216120
Fe           -0.350368     -0.248329      0.018834
H            -0.075637     -0.221218      0.051363
H            -0.409609     -0.088367     -0.209810
H             0.081739     -0.070806     -0.049515
H             0.415799     -0.254431      0.193681
O            -0.182895     -0.238802     -0.097938
O            -0.286082     -0.079093      0.140377
O             0.196092     -0.097621      0.096799
O             0.301083     -0.251124     -0.160850
O            -0.049323     -0.250552      0.148285
O            -0.442956     -0.091334     -0.106958
O             0.051013     -0.081401     -0.145896
O             0.452991     -0.255546      0.096785
Fe            0.145766      0.076499      0.218075
Fe            0.343561      0.241058     -0.024087
Fe           -0.145142      0.255966     -0.230120
Fe           -0.355066      0.085754      0.022583
H            -0.098209      0.076185      0.046376
H            -0.427111      0.273127     -0.182339
H             0.083120      0.234726     -0.057813
H             0.437671      0.111205      0.202148
O            -0.195956      0.090990     -0.095007
O            -0.292564      0.249393      0.143202
O             0.197719      0.236925      0.093735
O             0.302922      0.070017     -0.157327
O            -0.049844      0.069641      0.136368
O            -0.442401      0.263419     -0.084397
O             0.044749      0.243906     -0.152368
O             0.440917      0.075150      0.105277
Fe            0.133907      0.404818      0.227869
Fe            0.353734     -0.428751     -0.043810
Fe           -0.148355     -0.410493     -0.230969
Fe           -0.346320      0.427690      0.036306
H            -0.080468      0.432719      0.064410
H            -0.405480     -0.417410     -0.207412
H             0.023486      0.473676     -0.085540
H             0.399265      0.444481      0.197454
O            -0.184325      0.419473     -0.090733
O            -0.314760     -0.411142      0.152535
O             0.199830     -0.423523      0.094117
O             0.293549      0.399150     -0.163981
O            -0.051584      0.428797      0.164740
O            -0.449419     -0.428449     -0.111350
O             0.044372     -0.436641     -0.131088
O             0.447493      0.415698      0.107109
Fe            0.146399     -0.251562     -0.278624
Fe            0.361559     -0.073640      0.464047
Fe           -0.137686     -0.084892      0.278722
Fe           -0.358178     -0.245861     -0.478140
H            -0.081013     -0.251059     -0.448264
H            -0.403048     -0.067301      0.278444
H             0.097842     -0.073582      0.447274
H             0.392483     -0.249525     -0.307610
O            -0.183450     -0.242277      0.419976
O            -0.310200     -0.076362     -0.353232
O             0.195561     -0.088328     -0.409176
O             0.307195     -0.256748      0.346242
O            -0.046007     -0.245607     -0.348986
O            -0.446808     -0.076280      0.376364
O             0.057565     -0.086435      0.351027
O             0.442483     -0.233365     -0.396657
Fe            0.135780      0.080425     -0.292733
H             0.409546      0.181691     -0.434432
Fe           -0.138690      0.252442      0.282129
Fe           -0.371163      0.088336     -0.482164
H            -0.096743      0.084925     -0.450349
H            -0.398025      0.236780      0.299699
H             0.083933      0.252611      0.458902
H             0.368459      0.073176     -0.234850
O            -0.186016      0.082720      0.411262
O            -0.296171      0.245554     -0.339555
O             0.181681      0.248835     -0.401961
O             0.306751      0.109840      0.352466
O            -0.063496      0.075472     -0.349449
O            -0.436117      0.247138      0.394121
O             0.051753      0.225165      0.358897
O             0.432209      0.089850     -0.396860
Ni            0.136902      0.415499     -0.288990
Fe            0.355820     -0.414104      0.480264
Fe           -0.141493     -0.408382      0.293936
Fe           -0.346091      0.417317     -0.463416
H            -0.084562      0.411636     -0.467986
H            -0.406424     -0.422333      0.308757
H             0.098774     -0.408175      0.456683
H             0.418141      0.415502     -0.301515
O            -0.181109      0.419935      0.416907
O            -0.307268     -0.401092     -0.340997
O             0.198564     -0.425914     -0.396411
O             0.310236      0.424097      0.332857
O            -0.055903      0.417160     -0.362117
O            -0.433609     -0.414707      0.411747
O             0.049957     -0.407052      0.367260
O             0.457429      0.446497     -0.388770
H             0.129779     -0.411035      0.020349
H             0.256392      0.167877      0.420089
H             0.343269      0.332836      0.360496
data_nwchem_pspw

_audit_creation_date   Tue Feb 28 08:30:34 2023
_audit_creation_method    generated by PSPW module of NWChem


_cell_length_a            10.0667
_cell_length_b             9.1552
_cell_length_c             9.2041
_cell_angle_alpha         90.0000
_cell_angle_beta          90.0000
_cell_angle_gamma         90.0000

_symmetry_space_group_name_H-M     P1  

loop_
_atom_site_type_symbol
_atom_site_fract_x
_atom_site_fract_y
_atom_site_fract_z
Fe            0.155941     -0.249337      0.235446
Fe            0.346644     -0.097111     -0.015785
Fe           -0.146146     -0.086476     -0.218343
Fe           -0.350118     -0.249353      0.021106
H            -0.076907     -0.256234      0.044364
H            -0.420279     -0.079426     -0.216030
H             0.097532     -0.082390     -0.036784
H             0.427019     -0.277879      0.206101
O            -0.181742     -0.256605     -0.087368
O            -0.294697     -0.079693      0.136576
O             0.188575     -0.078266      0.107090
O             0.285790     -0.255386     -0.145945
O            -0.053716     -0.261811      0.148206
O            -0.448845     -0.068837     -0.114136
O             0.057362     -0.100257     -0.133126
O             0.452184     -0.245845      0.108265
Fe            0.137055      0.098302      0.223239
Fe            0.367855      0.245039     -0.023842
Fe           -0.140465      0.253978     -0.227858
Fe           -0.355005      0.085378      0.024464
H            -0.097368      0.090122      0.047222
H            -0.403899      0.255856     -0.202367
H             0.113935      0.243587     -0.044163
H             0.436806      0.102306      0.211723
O            -0.207120      0.085709     -0.096621
O            -0.312654      0.244795      0.151471
O             0.189179      0.250583      0.082028
O             0.315161      0.081129     -0.147790
O            -0.049805      0.088939      0.143129
O            -0.445141      0.272808     -0.106908
O             0.065495      0.253952     -0.149450
O             0.452956      0.080279      0.112675
Fe            0.138949      0.425302      0.216761
Fe            0.359567     -0.421535     -0.042347
Fe           -0.142139     -0.425645     -0.232257
Fe           -0.357904      0.429150      0.033625
H            -0.076051      0.391407      0.039744
H            -0.417071     -0.432471     -0.203954
H             0.025859      0.473649     -0.079638
H             0.421146      0.428971      0.199543
O            -0.203243      0.410692     -0.086697
O            -0.307643     -0.415911      0.163245
O             0.195794     -0.409620      0.091789
O             0.290195      0.410786     -0.146113
O            -0.055078      0.414826      0.141147
O            -0.452610     -0.406793     -0.106135
O             0.044606     -0.444769     -0.139674
O             0.449193      0.430131      0.103063
Fe            0.142024     -0.257799     -0.294842
Fe            0.353175     -0.082718      0.480882
Fe           -0.146766     -0.086833      0.265380
Fe           -0.351218     -0.250691     -0.484503
H            -0.079498     -0.262515     -0.453839
H            -0.443842     -0.080791      0.296436
H             0.090297     -0.078317      0.446543
H             0.399247     -0.246677     -0.291387
O            -0.189126     -0.243909      0.405373
O            -0.301342     -0.086628     -0.347740
O             0.195385     -0.082711     -0.399562
O             0.310740     -0.244852      0.351337
O            -0.057950     -0.258433     -0.345790
O            -0.438722     -0.079691      0.400522
O             0.062231     -0.074018      0.344358
O             0.437283     -0.259011     -0.388155
Fe            0.150230      0.085263     -0.275394
H             0.414089      0.160080     -0.414125
Fe           -0.152793      0.257986      0.277308
Fe           -0.339604      0.090026     -0.479101
H            -0.057661      0.098213     -0.445808
H            -0.411561      0.236969      0.302828
H             0.087601      0.256393      0.448043
H             0.410233      0.065211     -0.278317
O            -0.174646      0.100899      0.410933
O            -0.300783      0.244701     -0.346143
O             0.193106      0.244914     -0.403071
O             0.297304      0.098175      0.359932
O            -0.048738      0.077350     -0.343782
O            -0.435970      0.245719      0.404950
O             0.052742      0.266731      0.352120
O             0.450692      0.069415     -0.383496
Ni            0.144503      0.406195     -0.282453
Fe            0.356229     -0.421559      0.485905
Fe           -0.135203     -0.414148      0.274092
Fe           -0.371742      0.414567     -0.461889
H            -0.118573      0.406869     -0.456200
H            -0.419187     -0.412635      0.296596
H             0.074621     -0.438256      0.455935
H             0.390816      0.418101     -0.301576
O            -0.201705      0.419080      0.409598
O            -0.320898     -0.411556     -0.341037
O             0.173707     -0.441683     -0.411214
O             0.305083      0.434811      0.328621
O            -0.070725      0.413930     -0.362102
O            -0.445985     -0.411020      0.396086
O             0.048079     -0.419582      0.357079
O             0.435045      0.419317     -0.395473
H             0.143909     -0.388397      0.008834
H             0.262643      0.166025      0.431347
H             0.339672      0.342748      0.363238
data_nwchem_pspw

_audit_creation_date   Tue Feb 28 11:31:36 2023
_audit_creation_method    generated by PSPW module of NWChem


_cell_length_a            10.0667
_cell_length_b             9.1552
_cell_length_c             9.2041
_cell_angle_alpha         90.0000
_cell_angle_beta          90.0000
_cell_angle_gamma         90.0000

_symmetry_space_group_name_H-M     P1  

loop_
_atom_site_type_symbol
_atom_site_fract_x
_atom_site_fract_y
_atom_site_fract_z
Fe            0.156822     -0.247318      0.227181
Fe            0.353990     -0.082053     -0.039445
Fe           -0.133947     -0.083674     -0.229355
Fe           -0.354969     -0.243514      0.027933
H            -0.087071     -0.247646      0.055881
H            -0.412097     -0.074458     -0.201115
H             0.100228     -0.089197     -0.063332
H             0.398522     -0.262550      0.187586
O            -0.200472     -0.232430     -0.094986
O            -0.309474     -0.083490      0.174896
O             0.206118     -0.100300      0.092643
O             0.289464     -0.257770     -0.153700
O            -0.043926     -0.254239      0.151602
O            -0.446328     -0.092238     -0.103639
O             0.064375     -0.084453     -0.156969
O             0.439770     -0.249431      0.090027
Fe            0.134535      0.071576      0.212814
Fe            0.346560      0.242196     -0.028053
Fe           -0.144095      0.255263     -0.214435
Fe           -0.361360      0.089100      0.038738
H            -0.088554      0.062800      0.037474
H            -0.432949      0.227968     -0.191110
H             0.090477      0.235904     -0.048689
H             0.428212      0.102896      0.209495
O            -0.196668      0.081251     -0.091222
O            -0.288455      0.246970      0.151269
O             0.182835      0.239006      0.084634
O             0.300685      0.080659     -0.169112
O            -0.055945      0.069726      0.139042
O            -0.455008      0.248230     -0.093185
O             0.052874      0.249847     -0.148065
O             0.440500      0.092659      0.106189
Fe            0.139898      0.412994      0.235554
Fe            0.371767     -0.426360     -0.039588
Fe           -0.152202     -0.404431     -0.223552
Fe           -0.356832      0.419786      0.041301
H            -0.095917      0.404112      0.057386
H            -0.426935     -0.396204     -0.205902
H             0.011750      0.486670     -0.069894
H             0.405269      0.443654      0.203936
O            -0.202152      0.426965     -0.096969
O            -0.317361     -0.410746      0.161225
O             0.196004     -0.419744      0.082450
O             0.308021      0.414370     -0.165238
O            -0.048361      0.417195      0.147783
O            -0.442221     -0.421793     -0.104354
O             0.043692     -0.442538     -0.139579
O             0.446404      0.421901      0.101288
Fe            0.147802     -0.254406     -0.293352
Fe            0.368532     -0.076652      0.466668
Fe           -0.145164     -0.092171      0.278952
Fe           -0.352079     -0.248351     -0.468541
H            -0.095343     -0.264428     -0.447585
H            -0.389196     -0.059672      0.316362
H             0.104278     -0.104431      0.448413
H             0.426218     -0.228253     -0.308320
O            -0.193958     -0.269008      0.400411
O            -0.308961     -0.081338     -0.341244
O             0.202210     -0.088833     -0.408389
O             0.305701     -0.246814      0.348745
O            -0.052207     -0.250284     -0.346560
O            -0.441003     -0.052215      0.409239
O             0.060169     -0.088264      0.348635
O             0.453900     -0.244785     -0.409568
Fe            0.132820      0.087371     -0.305374
H             0.424472      0.195977     -0.383704
Fe           -0.129954      0.236687      0.284963
Fe           -0.360467      0.099042     -0.460427
H            -0.088111      0.088729     -0.454701
H            -0.390388      0.222751      0.315982
H             0.091728      0.218539      0.458736
H             0.368197      0.072099     -0.251463
O            -0.185281      0.081254      0.417042
O            -0.301701      0.274826     -0.341509
O             0.177904      0.254096     -0.418416
O             0.301394      0.094325      0.350044
O            -0.061715      0.096337     -0.349257
O            -0.436053      0.253983      0.404241
O             0.051347      0.226903      0.357043
O             0.439527      0.091733     -0.370001
Ni            0.134355      0.409274     -0.272128
Fe            0.358332     -0.412921      0.486983
Fe           -0.140736     -0.421753      0.270851
Fe           -0.362180      0.419360     -0.472944
H            -0.073506      0.412385     -0.462759
H            -0.404533     -0.420531      0.301447
H             0.081731     -0.419713      0.451402
H             0.413018      0.406295     -0.311101
O            -0.185526      0.398426      0.414728
O            -0.313183     -0.410185     -0.344901
O             0.182222     -0.419542     -0.415224
O             0.328290      0.431196      0.333635
O            -0.041350      0.423260     -0.359676
O            -0.442595     -0.402629      0.401508
O             0.058927     -0.402194      0.350589
O             0.424723      0.404335     -0.416249
H             0.118930     -0.419431      0.018399
H             0.287541      0.175480      0.414060
H             0.378232      0.366592      0.392887
data_nwchem_pspw

_audit_creation_date   Tue Feb 28 14:28:43 2023
_audit_creation_method    generated by PSPW module of NWChem


_cell_length_a            10.0667
_cell_length_b             9.1552
_cell_length_c             9.2041
_cell_angle_alpha         90.0000
_cell_angle_beta          90.0000
_cell_angle_gamma         90.0000

_symmetry_space_group_name_H-M     P1  

loop_
_atom_site_type_symbol
_atom_site_fract_x
_atom_site_fract_y
_atom_site_fract_z
Fe            0.141683     -0.229893      0.225065
Fe            0.361117     -0.082771     -0.033091
Fe           -0.149787     -0.085368     -0.214736
Fe           -0.351437     -0.245095      0.020664
H            -0.074544     -0.239137      0.054688
H            -0.418616     -0.076590     -0.216490
H             0.102108     -0.107385     -0.041822
H             0.421266     -0.240948      0.194372
O            -0.184303     -0.257799     -0.095967
O            -0.295674     -0.081766      0.147601
O             0.200153     -0.079298      0.085746
O             0.292630     -0.258315     -0.153178
O            -0.045168     -0.251834      0.152895
O            -0.446223     -0.087551     -0.111316
O             0.054718     -0.096494     -0.133381
O             0.451966     -0.265541      0.098179
Fe            0.146354      0.084651      0.230128
Fe            0.355560      0.252408     -0.024762
Fe           -0.142228      0.255743     -0.235278
Fe           -0.353920      0.076895      0.025661
H            -0.070036      0.097886      0.047232
H            -0.393301      0.234842     -0.187349
H             0.079044      0.242211     -0.034754
H             0.426584      0.119152      0.192238
O            -0.205424      0.084458     -0.096486
O            -0.304478      0.252087      0.157201
O             0.178114      0.251301      0.093519
O             0.310697      0.085911     -0.155531
O            -0.051523      0.078862      0.149276
O            -0.446012      0.256289     -0.102021
O             0.048649      0.234206     -0.144253
O             0.451415      0.073690      0.105273
Fe            0.142836      0.411349      0.232209
Fe            0.369431     -0.418296     -0.044445
Fe           -0.138951     -0.427007     -0.229003
Fe           -0.353777      0.415338      0.015776
H            -0.111954      0.407385      0.050398
H            -0.406295     -0.419549     -0.211319
H             0.025118     -0.465230     -0.025866
H             0.399433      0.444227      0.178301
O            -0.207094      0.418133     -0.104291
O            -0.302895     -0.413871      0.152105
O             0.211953     -0.423767      0.093640
O             0.294161      0.417500     -0.144597
O            -0.065544      0.430319      0.136333
O            -0.437169     -0.402244     -0.111135
O             0.041113     -0.448323     -0.128386
O             0.440934      0.410099      0.094681
Fe            0.140946     -0.257834     -0.279140
Fe            0.360517     -0.090673      0.470672
Fe           -0.135435     -0.084500      0.267449
Fe           -0.350520     -0.250150     -0.467372
H            -0.091070     -0.249151     -0.450855
H            -0.429400     -0.073496      0.290288
H             0.074884     -0.059614      0.454765
H             0.402613     -0.238527     -0.316289
O            -0.186829     -0.245097      0.413228
O            -0.313446     -0.072745     -0.341085
O             0.207129     -0.094855     -0.395745
O             0.296146     -0.245515      0.355104
O            -0.051283     -0.245566     -0.352598
O            -0.448969     -0.069417      0.391793
O             0.052027     -0.064217      0.350085
O             0.449779     -0.230929     -0.406398
Fe            0.145978      0.084044     -0.284046
H             0.429848      0.199105     -0.390884
Fe           -0.149323      0.250161      0.279767
Fe           -0.365287      0.085114     -0.480733
H            -0.084947      0.079295     -0.444139
H            -0.402422      0.268434      0.290053
H             0.075989      0.241292      0.461452
H             0.373257      0.075891     -0.257697
O            -0.191630      0.074596      0.411757
O            -0.304603      0.248002     -0.339858
O             0.199088      0.259144     -0.392163
O             0.308931      0.094256      0.360978
O            -0.057209      0.069669     -0.341713
O            -0.443126      0.241518      0.385271
O             0.042646      0.259137      0.363555
O             0.442301      0.095461     -0.384738
Ni            0.141235      0.403465     -0.259021
Fe            0.348522     -0.418719      0.492685
Fe           -0.150455     -0.412764      0.281622
Fe           -0.367058      0.423135     -0.481837
H            -0.081551      0.409679     -0.464730
H            -0.407802     -0.389787      0.295373
H             0.066587     -0.423459      0.451096
H             0.411566      0.437681     -0.280520
O            -0.199687      0.412789      0.400992
O            -0.302513     -0.416536     -0.358323
O             0.182683     -0.438166     -0.397835
O             0.315038      0.422339      0.329730
O            -0.041385      0.406552     -0.370124
O            -0.440709     -0.403329      0.395873
O             0.053376     -0.409899      0.347327
O             0.453941      0.446901     -0.370514
H             0.154227     -0.400164      0.013502
H             0.289300      0.155839      0.444916
H             0.372859      0.339156      0.345705
data_nwchem_pspw

_audit_creation_date   Tue Feb 28 17:29:08 2023
_audit_creation_method    generated by PSPW module of NWChem


_cell_length_a            10.0667
_cell_length_b             9.1552
_cell_length_c             9.2041
_cell_angle_alpha         90.0000
_cell_angle_beta          90.0000
_cell_angle_gamma         90.0000

_symmetry_space_group_name_H-M     P1  

loop_
_atom_site_type_symbol
_atom_site_fract_x
_atom_site_fract_y
_atom_site_fract_z
Fe            0.139596     -0.257368      0.232450
Fe            0.360591     -0.093919      0.002971
Fe           -0.134924     -0.078502     -0.227574
Fe           -0.349679     -0.249515      0.028546
H            -0.084298     -0.262374      0.052491
H            -0.418105     -0.090859     -0.195524
H             0.085340     -0.064140     -0.042716
H             0.404160     -0.263958      0.204243
O            -0.198876     -0.252937     -0.099044
O            -0.311422     -0.074723      0.171616
O             0.181823     -0.097731      0.087336
O             0.305417     -0.254564     -0.157843
O            -0.055354     -0.256360      0.152312
O            -0.440785     -0.083939     -0.090523
O             0.057601     -0.062042     -0.148458
O             0.443174     -0.258094      0.106417
Fe            0.134725      0.093481      0.219892
Fe            0.356739      0.260405     -0.016129
Fe           -0.137179      0.251337     -0.233121
Fe           -0.340806      0.080011      0.032329
H            -0.086630      0.082831      0.042314
H            -0.409336      0.227751     -0.208829
H             0.103777      0.265873     -0.051877
H             0.417324      0.089344      0.218642
O            -0.193156      0.068155     -0.093942
O            -0.295498      0.243181      0.148507
O             0.182733      0.242339      0.091817
O             0.318886      0.063803     -0.148636
O            -0.055844      0.094016      0.143165
O            -0.436388      0.229657     -0.105544
O             0.059888      0.245286     -0.148654
O             0.431628      0.084519      0.115700
Fe            0.121802      0.415031      0.230260
Fe            0.360378     -0.419580     -0.056906
Fe           -0.156093     -0.414615     -0.221915
Fe           -0.352643      0.412509      0.021065
H            -0.109698      0.416553      0.041472
H            -0.410659     -0.430602     -0.211172
H             0.048557     -0.484973     -0.057368
H             0.401279      0.432329      0.195806
O            -0.188834      0.414866     -0.097625
O            -0.301807     -0.415190      0.164401
O             0.197686     -0.414705      0.081521
O             0.292943      0.408658     -0.156986
O            -0.060062      0.431898      0.135486
O            -0.447835     -0.414354     -0.110971
O             0.043124     -0.438741     -0.149812
O             0.443020      0.421470      0.101646
Fe            0.142956     -0.252760     -0.272895
Fe            0.355027     -0.076973      0.468345
Fe           -0.145806     -0.082858      0.270427
Fe           -0.342450     -0.250567     -0.474815
H            -0.096511     -0.262673     -0.436130
H            -0.394469     -0.075037      0.301201
H             0.105720     -0.072450      0.443026
H             0.412013     -0.256477     -0.310493
O            -0.194884     -0.254247      0.392035
O            -0.305349     -0.068215     -0.338059
O             0.205817     -0.092336     -0.396669
O             0.314737     -0.255498      0.352208
O            -0.056185     -0.254075     -0.340080
O            -0.448687     -0.085316      0.391945
O             0.063595     -0.088275      0.351431
O             0.454529     -0.239188     -0.404502
Fe            0.143843      0.099110     -0.292092
H             0.402664      0.178611     -0.407368
Fe           -0.146012      0.254714      0.290647
Fe           -0.365255      0.086573     -0.479930
H            -0.092736      0.088713     -0.456691
H            -0.410741      0.239536      0.294017
H             0.100703      0.261385      0.479225
H             0.397029      0.073334     -0.214923
O            -0.196709      0.067155      0.405858
O            -0.291131      0.253797     -0.347184
O             0.183232      0.254592     -0.418482
O             0.291518      0.099247      0.355538
O            -0.054586      0.085209     -0.356074
O            -0.437649      0.249183      0.390052
O             0.041941      0.235116      0.372750
O             0.442822      0.082973     -0.411386
Ni            0.131069      0.413641     -0.282400
Fe            0.370986     -0.408839      0.476703
Fe           -0.131187     -0.420166      0.287161
Fe           -0.361813      0.412700     -0.476641
H            -0.093310      0.405315     -0.467663
H            -0.417338     -0.409462      0.309861
H             0.098214     -0.411579      0.461358
H             0.404112      0.404347     -0.315561
O            -0.193388      0.426407      0.415383
O            -0.314206     -0.430060     -0.345335
O             0.189743     -0.417094     -0.409349
O             0.313733      0.423125      0.326736
O            -0.060890      0.412056     -0.362432
O            -0.440848     -0.424951      0.411927
O             0.054913     -0.410614      0.360551
O             0.447115      0.422821     -0.412451
H             0.139366     -0.369218      0.012021
H             0.275406      0.172812      0.427978
H             0.354702      0.336366      0.363679
data_nwchem_pspw

_audit_creation_date   Tue Feb 28 20:27:02 2023
_audit_creation_method    generated by PSPW module of NWChem


_cell_length_a            10.0667
_cell_length_b             9.1552
_cell_length_c             9.2041
_cell_angle_alpha         90.0000
_cell_angle_beta          90.0000
_cell_angle_gamma         90.0000

_symmetry_space_group_name_H-M     P1  

loop_
_atom_site_type_symbol
_atom_site_fract_x
_atom_site_fract_y
_atom_site_fract_z
Fe            0.137229     -0.238092      0.227939
Fe            0.381176     -0.089342      0.002247
Fe           -0.144453     -0.095074     -0.227810
Fe           -0.347801     -0.238555      0.035872
H            -0.102509     -0.239744      0.054540
H            -0.389678     -0.084092     -0.208381
H             0.101745     -0.074587     -0.054998
H             0.402663     -0.252709      0.194153
O            -0.184273     -0.242140     -0.085877
O            -0.309118     -0.072962      0.159891
O             0.213843     -0.087724      0.111547
O             0.303903     -0.267237     -0.146737
O            -0.062916     -0.239802      0.153241
O            -0.450533     -0.079626     -0.112108
O             0.062315     -0.092636     -0.147274
O             0.445362     -0.260748      0.098660
Fe            0.137764      0.086357      0.212855
Fe            0.359695      0.247746     -0.045400
Fe           -0.143840      0.249829     -0.236204
Fe           -0.350818      0.085603      0.009850
H            -0.089369      0.069814      0.045129
H            -0.400205      0.263348     -0.205602
H             0.095023      0.257716     -0.052770
H             0.418151      0.110272      0.197758
O            -0.176706      0.092580     -0.095267
O            -0.308947      0.243243      0.153975
O             0.193119      0.243716      0.082556
O             0.314615      0.063695     -0.157604
O            -0.061546      0.068608      0.147791
O            -0.440892      0.257801     -0.106977
O             0.061625      0.252942     -0.151481
O             0.462004      0.086655      0.106969
Fe            0.135635      0.411707      0.230039
Fe            0.363296     -0.432992     -0.049080
Fe           -0.149326     -0.411564     -0.223132
Fe           -0.353769      0.420885      0.031865
H            -0.110133      0.418848      0.046067
H            -0.404584     -0.408930     -0.184068
H             0.042492     -0.477938     -0.059285
H             0.404761      0.414752      0.195301
O            -0.193311      0.419736     -0.086885
O            -0.322482     -0.415282      0.169710
O             0.198642     -0.422493      0.067004
O             0.305183      0.398822     -0.165966
O            -0.067017      0.422537      0.145738
O            -0.435754     -0.413046     -0.083216
O             0.044616     -0.427656     -0.149266
O             0.438470      0.413478      0.095602
Fe            0.149528     -0.246541     -0.279890
Fe            0.358178     -0.083273      0.472840
Fe           -0.140438     -0.087195      0.288008
Fe           -0.365540     -0.252166     -0.469121
H            -0.095714     -0.252095     -0.453095
H            -0.416722     -0.075063      0.284634
H             0.098102     -0.067012      0.438117
H             0.430041     -0.264500     -0.301035
O            -0.201440     -0.253464      0.409051
O            -0.308392     -0.081601     -0.337317
O             0.205150     -0.088575     -0.404652
O             0.307895     -0.250324      0.343047
O            -0.049373     -0.234487     -0.357218
O            -0.448770     -0.069669      0.388214
O             0.050582     -0.075944      0.347754
O             0.445127     -0.246384     -0.400663
Fe            0.142402      0.080652     -0.279620
H             0.400603      0.161831     -0.448679
Fe           -0.144977      0.252667      0.272599
Fe           -0.361509      0.081842     -0.475324
H            -0.084082      0.081800     -0.450647
H            -0.403511      0.274064      0.318997
H             0.095551      0.250987      0.461252
H             0.369812      0.068694     -0.249925
O            -0.198760      0.089840      0.414904
O            -0.312374      0.250166     -0.339188
O             0.192525      0.242047     -0.405462
O             0.283693      0.078136      0.363388
O            -0.060055      0.081915     -0.347965
O            -0.451162      0.250494      0.409657
O             0.063443      0.251839      0.358797
O             0.436114      0.084783     -0.390177
Ni            0.140173      0.407569     -0.286997
Fe            0.354010     -0.420444      0.477131
Fe           -0.146225     -0.421587      0.269965
Fe           -0.365914      0.426308     -0.465292
H            -0.085962      0.427622     -0.453697
H            -0.414036     -0.420216      0.302507
H             0.090067     -0.389302      0.456718
H             0.415207      0.388466     -0.297451
O            -0.189878      0.418718      0.405085
O            -0.308405     -0.392888     -0.338849
O             0.188041     -0.418025     -0.402088
O             0.316862      0.416886      0.343409
O            -0.054087      0.416442     -0.348339
O            -0.447796     -0.410619      0.401736
O             0.058820     -0.410231      0.358276
O             0.460225      0.449558     -0.370847
H             0.160412     -0.358868     -0.002503
H             0.255342      0.161815      0.415632
H             0.381009      0.349392      0.385097
data_nwchem_pspw

_audit_creation_date   Tue Feb 28 23:28:05 2023
_audit_creation_method    generated by PSPW module of NWChem


_cell_length_a            10.0667
_cell_length_b             9.1552
_cell_length_c             9.2041
_cell_angle_alpha         90.0000
_cell_angle_beta          90.0000
_cell_angle_gamma         90.0000

_symmetry_space_group_name_H-M     P1  

loop_
_atom_site_type_symbol
_atom_site_fract_x
_atom_site_fract_y
_atom_site_fract_z
Fe            0.150434     -0.238954      0.243966
Fe            0.355127     -0.094062     -0.005402
Fe           -0.153427     -0.098715     -0.223660
Fe           -0.356114     -0.249685      0.033075
H            -0.069341     -0.257751      0.038298
H            -0.417199     -0.086387     -0.191290
H             0.103254     -0.105347     -0.068133
H             0.427846     -0.257675      0.211230
O            -0.194463     -0.259199     -0.091179
O            -0.283942     -0.070637      0.161728
O             0.187729     -0.084963      0.102622
O             0.316624     -0.259666     -0.148831
O            -0.034275     -0.254329      0.138682
O            -0.444793     -0.070955     -0.092944
O             0.053973     -0.086447     -0.158448
O             0.460798     -0.225109      0.119488
Fe            0.136518      0.099932      0.230150
Fe            0.350081      0.251522     -0.027672
Fe           -0.147799      0.250281     -0.230095
Fe           -0.338135      0.093435      0.028826
H            -0.079923      0.108978      0.050994
H            -0.422861      0.262263     -0.209576
H             0.095186      0.248604     -0.054739
H             0.417232      0.108669      0.207371
O            -0.186587      0.079680     -0.102607
O            -0.305760      0.259903      0.151276
O             0.184090      0.248012      0.082058
O             0.307729      0.060141     -0.166760
O            -0.061705      0.097931      0.153748
O            -0.451557      0.251669     -0.108803
O             0.049281      0.258291     -0.147807
O             0.445072      0.095711      0.107024
Fe            0.145331      0.410542      0.235287
Fe            0.372928     -0.422936     -0.040450
Fe           -0.151450     -0.430073     -0.236680
Fe           -0.364901      0.422755      0.023445
H            -0.095768      0.411962      0.060146
H            -0.388173     -0.397984     -0.200676
H             0.032154     -0.475156     -0.040506
H             0.398419      0.429477      0.192319
O            -0.195574      0.421268     -0.096985
O            -0.307923     -0.413555      0.158750
O             0.198670     -0.420230      0.104436
O             0.304487      0.422234     -0.163490
O            -0.070398      0.422019      0.161224
O            -0.443608     -0.404090     -0.098198
O             0.056152     -0.434908     -0.132034
O             0.446208      0.413413      0.094839
Fe            0.158635     -0.255643     -0.289883
Fe            0.365569     -0.077047      0.469773
Fe           -0.132316     -0.082267      0.289766
Fe           -0.348001     -0.252614     -0.483055
H            -0.071593     -0.268830     -0.448412
H            -0.407461     -0.073696      0.283628
H             0.111896     -0.067275      0.457223
H             0.438069     -0.244598     -0.300443
O            -0.198711     -0.257965      0.393312
O            -0.313838     -0.070066     -0.357283
O             0.196075     -0.090596     -0.420093
O             0.310029     -0.247129      0.362794
O            -0.048552     -0.251825     -0.348225
O            -0.442652     -0.073569      0.381445
O             0.062774     -0.063303      0.358578
O             0.450232     -0.248441     -0.406735
Fe            0.142007      0.085062     -0.289551
H             0.397188      0.153697     -0.429848
Fe           -0.146953      0.249176      0.275176
Fe           -0.367179      0.095333     -0.495143
H            -0.078437      0.108948     -0.454759
H            -0.405448      0.258264      0.292793
H             0.092275      0.248981      0.478485
H             0.383497      0.062680     -0.246031
O            -0.206470      0.085351      0.400397
O            -0.305196      0.245675     -0.351454
O             0.188825      0.246905     -0.403806
O             0.307835      0.106136      0.353685
O            -0.053639      0.090159     -0.353961
O            -0.454860      0.259293      0.385777
O             0.046556      0.261158      0.370253
O             0.440921      0.069501     -0.394401
Ni            0.134722      0.408715     -0.264227
Fe            0.359186     -0.424440      0.478272
Fe           -0.144468     -0.423878      0.270338
Fe           -0.378837      0.409661     -0.474952
H            -0.114834      0.396375     -0.487663
H            -0.412445     -0.406255      0.292323
H             0.083348     -0.439305      0.466301
H             0.391691      0.400463     -0.300215
O            -0.198225      0.414563      0.424490
O            -0.320699     -0.419099     -0.343776
O             0.192378     -0.436391     -0.398452
O             0.333112      0.413537      0.325026
O            -0.066242      0.408723     -0.350982
O            -0.449327     -0.413575      0.391198
O             0.067835     -0.424740      0.362109
O             0.439733      0.432189     -0.390461
H             0.156634     -0.413219      0.011667
H             0.312302      0.192402      0.416194
H             0.391393      0.332674      0.352680
data_nwchem_pspw

_audit_creation_date   Wed Mar  1 02:28:41 2023
_audit_creation_method    generated by PSPW module of NWChem


_cell_length_a            10.0667
_cell_length_b             9.1552
_cell_length_c             9.2041
_cell_angle_alpha         90.0000
_cell_angle_beta          90.0000
_cell_angle_gamma         90.0000

_symmetry_space_group_name_H-M     P1  

loop_
_atom_site_type_symbol
_atom_site_fract_x
_atom_site_fract_y
_atom_site_fract_z
Fe            0.144721     -0.242934      0.228025
Fe            0.376273     -0.088233     -0.020128
Fe           -0.144096     -0.084952     -0.225782
Fe           -0.343628     -0.261049      0.029324
H            -0.070413     -0.236344      0.040327
H            -0.416055     -0.063470     -0.220160
H             0.137224     -0.091405     -0.048465
H             0.413845     -0.267480      0.193875
O            -0.181508     -0.265233     -0.101749
O            -0.312335     -0.084581      0.151840
O             0.207674     -0.097025      0.088400
O             0.323100     -0.242407     -0.164374
O            -0.045203     -0.260359      0.138060
O            -0.436754     -0.078276     -0.107238
O             0.071248     -0.092921     -0.138597
O             0.446835     -0.256336      0.095335
Fe            0.141542      0.075462      0.221000
Fe            0.352678      0.255239     -0.015904
Fe           -0.145894      0.245407     -0.217376
Fe           -0.358286      0.082579      0.026181
H            -0.094104      0.111106      0.054062
H            -0.418965      0.261406     -0.197671
H             0.090834      0.228611     -0.052245
H             0.423981      0.071590      0.200481
O            -0.205830      0.085539     -0.095889
O            -0.307252      0.238194      0.165524
O             0.191180      0.246482      0.107868
O             0.317792      0.072095     -0.158761
O            -0.066044      0.100395      0.154356
O            -0.451283      0.254570     -0.098437
O             0.050353      0.240813     -0.148385
O             0.446470      0.088844      0.101850
Fe            0.142787      0.413003      0.227613
Fe            0.359088     -0.419760     -0.051048
Fe           -0.148565     -0.421428     -0.233515
Fe           -0.359144      0.415342      0.030547
H            -0.100682      0.415286      0.038810
H            -0.403057     -0.407474     -0.211536
H             0.033911      0.463091     -0.088034
H             0.397729      0.442896      0.189175
O            -0.198235      0.404007     -0.083133
O            -0.309870     -0.411034      0.157088
O             0.188197     -0.417172      0.086814
O             0.290294      0.404054     -0.153463
O            -0.049239      0.415677      0.136592
O            -0.433974     -0.422130     -0.107317
O             0.038472     -0.448834     -0.147067
O             0.442532      0.420916      0.098430
Fe            0.143212     -0.242569     -0.273687
Fe            0.359627     -0.080987      0.471667
Fe           -0.144887     -0.078833      0.262142
Fe           -0.345836     -0.248572     -0.467820
H            -0.049389     -0.242098     -0.447286
H            -0.402001     -0.067138      0.290635
H             0.087911     -0.063100      0.447690
H             0.425135     -0.225016     -0.292900
O            -0.190375     -0.249108      0.405047
O            -0.293901     -0.084301     -0.352228
O             0.194952     -0.073414     -0.416253
O             0.306620     -0.244222      0.352098
O            -0.043788     -0.262377     -0.345977
O            -0.438258     -0.070317      0.387700
O             0.052990     -0.065480      0.344520
O             0.451819     -0.233177     -0.394833
Fe            0.146970      0.090715     -0.291664
H             0.420370      0.178418     -0.441146
Fe           -0.146064      0.259662      0.280312
Fe           -0.355525      0.096900     -0.482532
H            -0.100397      0.081681     -0.446607
H            -0.407472      0.227638      0.311019
H             0.104582      0.247360      0.457473
H             0.386277      0.073025     -0.249898
O            -0.197162      0.085379      0.405514
O            -0.305067      0.245950     -0.348690
O             0.196794      0.263104     -0.394220
O             0.293964      0.078982      0.340945
O            -0.056063      0.078345     -0.350293
O            -0.458604      0.249524      0.397360
O             0.052682      0.247472      0.363416
O             0.444571      0.085748     -0.398995
Ni            0.124936      0.404654     -0.277283
Fe            0.352552     -0.416304      0.493603
Fe           -0.147162     -0.412036      0.283811
Fe           -0.364164      0.414683     -0.477451
H            -0.075043      0.405175     -0.460156
H            -0.436233     -0.406314      0.304727
H             0.072091     -0.437486      0.463989
H             0.406807      0.388300     -0.319479
O            -0.207005      0.423852      0.404837
O            -0.308157     -0.410623     -0.351241
O             0.182992     -0.420703     -0.397940
O             0.313783      0.420693      0.354850
O            -0.057938      0.404484     -0.353382
O            -0.448362     -0.409636      0.405065
O             0.042897     -0.428802      0.362684
O             0.464201      0.453852     -0.370770
H             0.130472     -0.397246      0.003469
H             0.314840      0.176272      0.364533
H             0.384937      0.349040      0.353455
data_nwchem_pspw

_audit_creation_date   Wed Mar  1 05:27:40 2023
_audit_creation_method    generated by PSPW module of NWChem


_cell_length_a            10.0667
_cell_length_b             9.1552
_cell_length_c             9.2041
_cell_angle_alpha         90.0000
_cell_angle_beta          90.0000
_cell_angle_gamma         90.0000

_symmetry_space_group_name_H-M     P1  

loop_
_atom_site_type_symbol
_atom_site_fract_x
_atom_site_fract_y
_atom_site_fract_z
Fe            0.155597     -0.257011      0.247278
Fe            0.352911     -0.102181     -0.013772
Fe           -0.145952     -0.086033     -0.217829
Fe           -0.358941     -0.250577      0.019117
H            -0.059510     -0.254218      0.054305
H            -0.406275     -0.082988     -0.196390
H             0.094860     -0.089069     -0.052162
H             0.395936     -0.246175      0.199338
O            -0.198280     -0.246348     -0.092920
O            -0.311825     -0.084159      0.157689
O             0.187623     -0.090243      0.093213
O             0.300886     -0.253523     -0.159417
O            -0.035260     -0.246714      0.155906
O            -0.457594     -0.082969     -0.109393
O             0.051699     -0.089237     -0.146889
O             0.441036     -0.254829      0.101262
Fe            0.144202      0.071092      0.222175
Fe            0.356084      0.245313     -0.017745
Fe           -0.153220      0.246931     -0.226005
Fe           -0.349771      0.087253      0.026817
H            -0.082169      0.090176      0.052323
H            -0.408620      0.265044     -0.196763
H             0.108175      0.235628     -0.062071
H             0.420486      0.092526      0.204234
O            -0.184223      0.078264     -0.095985
O            -0.284865      0.254035      0.143966
O             0.199780      0.241741      0.102983
O             0.308077      0.080176     -0.163039
O            -0.048887      0.085535      0.144326
O            -0.448864      0.261355     -0.099281
O             0.067786      0.251705     -0.160761
O             0.453315      0.078009      0.109102
Fe            0.127117      0.398956      0.237699
Fe            0.369534     -0.425663     -0.041754
Fe           -0.151254     -0.413045     -0.235503
Fe           -0.344039      0.422673      0.013704
H            -0.076797      0.391163      0.039769
H            -0.405616     -0.417647     -0.215615
H             0.009481     -0.411882     -0.044117
H             0.417578      0.425377      0.193935
O            -0.178074      0.419844     -0.105373
O            -0.317210     -0.415130      0.153760
O             0.213081     -0.432229      0.102845
O             0.303736      0.411052     -0.150939
O            -0.051458      0.408977      0.142459
O            -0.436435     -0.406384     -0.117496
O             0.053601     -0.406952     -0.136790
O             0.455328      0.425297      0.089950
Fe            0.139698     -0.248947     -0.275856
Fe            0.365289     -0.077743      0.479756
Fe           -0.138815     -0.079953      0.264189
Fe           -0.356552     -0.241362     -0.473931
H            -0.107618     -0.255575     -0.464329
H            -0.401084     -0.089088      0.300114
H             0.103676     -0.078376      0.456870
H             0.402159     -0.227591     -0.287463
O            -0.194726     -0.246684      0.396469
O            -0.304907     -0.081243     -0.345777
O             0.196222     -0.082183     -0.404623
O             0.320638     -0.246036      0.342892
O            -0.066417     -0.261001     -0.363088
O            -0.443269     -0.088820      0.395661
O             0.059224     -0.074026      0.362217
O             0.433855     -0.248877     -0.386484
Fe            0.141076      0.095247     -0.300145
H             0.422450      0.176692     -0.402893
Fe           -0.146599      0.255403      0.281013
Fe           -0.361724      0.091344     -0.473933
H            -0.098775      0.067484     -0.435757
H            -0.390479      0.235269      0.306132
H             0.095166      0.250917      0.452202
H             0.379604      0.072712     -0.230153
O            -0.197054      0.084829      0.410360
O            -0.307945      0.251179     -0.349355
O             0.193142      0.268462     -0.409972
O             0.292604      0.087790      0.366331
O            -0.061805      0.087167     -0.345910
O            -0.443309      0.232369      0.392601
O             0.054095      0.229817      0.349619
O             0.457829      0.082091     -0.376217
Ni            0.137485      0.426834     -0.280352
Fe            0.361364     -0.424653      0.498108
Fe           -0.151188     -0.403427      0.272453
Fe           -0.364514      0.414346     -0.489923
H            -0.091334      0.409980     -0.461804
H            -0.430250     -0.414560      0.303622
H             0.082885     -0.406087      0.463707
H             0.417649      0.425742     -0.291841
O            -0.192790      0.429999      0.405471
O            -0.309567     -0.413987     -0.351768
O             0.191694     -0.418197     -0.400999
O             0.313532      0.428880      0.336960
O            -0.056991      0.407671     -0.360036
O            -0.445869     -0.408582      0.410989
O             0.052301     -0.413812      0.364128
O             0.446100      0.419935     -0.391256
H             0.149326     -0.424021      0.023951
H             0.262285      0.160144      0.434806
H             0.339964      0.337487      0.378868
data_nwchem_pspw

_audit_creation_date   Wed Mar  1 08:28:30 2023
_audit_creation_method    generated by PSPW module of NWChem


_cell_length_a            10.0667
_cell_length_b             9.1552
_cell_length_c             9.2041
_cell_angle_alpha         90.0000
_cell_angle_beta          90.0000
_cell_angle_gamma         90.0000

_symmetry_space_group_name_H-M     P1  

loop_
_atom_site_type_symbol
_atom_site_fract_x
_atom_site_fract_y
_atom_site_fract_z
Fe            0.132428     -0.256889      0.220396
Fe            0.348245     -0.094659     -0.025631
Fe           -0.132071     -0.075697     -0.221770
Fe           -0.355448     -0.241865      0.024428
H            -0.109927     -0.251019      0.043608
H            -0.399239     -0.077436     -0.197887
H             0.076803     -0.099066     -0.041302
H             0.432348     -0.264958      0.194164
O            -0.179986     -0.232200     -0.093289
O            -0.314203     -0.074759      0.160375
O             0.193987     -0.091990      0.091199
O             0.303758     -0.251340     -0.160223
O            -0.068292     -0.248475      0.147535
O            -0.439838     -0.059313     -0.105259
O             0.061769     -0.090374     -0.145921
O             0.433332     -0.270472      0.090371
Fe            0.132509      0.064498      0.217793
Fe            0.365982      0.243334     -0.021155
Fe           -0.143812      0.255114     -0.207183
Fe           -0.356094      0.094521      0.047084
H            -0.118387      0.077477      0.055357
H            -0.389577      0.243329     -0.199854
H             0.104510      0.234681     -0.045704
H             0.428851      0.071309      0.207153
O            -0.192680      0.076779     -0.092192
O            -0.294807      0.257704      0.153939
O             0.197937      0.238448      0.092507
O             0.316345      0.078212     -0.168395
O            -0.059992      0.078454      0.143921
O            -0.437495      0.253744     -0.105655
O             0.072090      0.253359     -0.144261
O             0.452133      0.059730      0.106959
Fe            0.139217      0.407504      0.230423
Fe            0.360965     -0.430245     -0.051939
Fe           -0.143078     -0.411117     -0.233081
Fe           -0.352266      0.431805      0.027556
H            -0.093890      0.422382      0.042149
H            -0.409399     -0.402110     -0.214349
H             0.056827     -0.308013     -0.084678
H             0.412774      0.426329      0.193079
O            -0.192254      0.428979     -0.095987
O            -0.313345     -0.409282      0.162997
O             0.197943     -0.433322      0.092224
O             0.308583      0.395621     -0.165121
O            -0.059077      0.432351      0.143577
O            -0.442715     -0.413055     -0.112190
O             0.053527     -0.401745     -0.129888
O             0.450566      0.411369      0.096534
Fe            0.155279     -0.263300     -0.290070
Fe            0.360446     -0.085642      0.471686
Fe           -0.141094     -0.075100      0.281549
Fe           -0.350335     -0.247759     -0.466386
H            -0.102721     -0.241363     -0.466940
H            -0.431791     -0.065137      0.301044
H             0.088899     -0.074743      0.463669
H             0.412513     -0.226213     -0.289301
O            -0.186049     -0.237808      0.415439
O            -0.303545     -0.083606     -0.338366
O             0.197322     -0.089409     -0.407957
O             0.296010     -0.263137      0.335640
O            -0.057665     -0.260102     -0.366045
O            -0.451243     -0.067474      0.405038
O             0.054925     -0.084940      0.364274
O             0.439329     -0.239291     -0.390057
Fe            0.149279      0.085350     -0.287687
H             0.425727      0.174797     -0.422228
Fe           -0.140012      0.279237      0.273663
Fe           -0.344178      0.080138     -0.478628
H            -0.086482      0.101101     -0.460678
H            -0.390593      0.250471      0.296681
H             0.080322      0.246051      0.450997
H             0.393292      0.079305     -0.273252
O            -0.183431      0.103450      0.407585
O            -0.297471      0.252730     -0.347026
O             0.172959      0.249418     -0.415667
O             0.300055      0.077317      0.346304
O            -0.051602      0.095754     -0.356584
O            -0.437307      0.243574      0.388262
O             0.054875      0.234665      0.346062
O             0.449284      0.082269     -0.378595
Ni            0.143854      0.396268     -0.277143
Fe            0.350853     -0.414886      0.475335
Fe           -0.158378     -0.405799      0.284259
Fe           -0.375911      0.415299     -0.465766
H            -0.087129      0.406012     -0.443481
H            -0.441963     -0.425468      0.305395
H             0.070910     -0.417805      0.456627
H             0.399401      0.398004     -0.315577
O            -0.198017      0.431282      0.411255
O            -0.307164     -0.419295     -0.339535
O             0.191192     -0.436937     -0.399208
O             0.317955      0.417663      0.322529
O            -0.059197      0.415003     -0.340632
O            -0.455147     -0.404147      0.410531
O             0.042759     -0.429669      0.356888
O             0.438338      0.417792     -0.408276
H             0.137364     -0.456737      0.008061
H             0.259489      0.137491      0.417387
H             0.338616      0.326187      0.373263
data_nwchem_pspw

_audit_creation_date   Wed Mar  1 11:27:52 2023
_audit_creation_method    generated by PSPW module of NWChem


_cell_length_a            10.0667
_cell_length_b             9.1552
_cell_length_c             9.2041
_cell_angle_alpha         90.0000
_cell_angle_beta          90.0000
_cell_angle_gamma         90.0000

_symmetry_space_group_name_H-M     P1  

loop_
_atom_site_type_symbol
_atom_site_fract_x
_atom_site_fract_y
_atom_site_fract_z
Fe            0.157586     -0.251350      0.238414
Fe            0.364295     -0.095429     -0.016254
Fe           -0.148095     -0.086445     -0.228083
Fe           -0.342011     -0.246447      0.021857
H            -0.083267     -0.246059      0.054432
H            -0.414136     -0.089947     -0.199004
H             0.100638     -0.085225     -0.052344
H             0.410984     -0.264272      0.196287
O            -0.196556     -0.270358     -0.111304
O            -0.298409     -0.076438      0.148014
O             0.198893     -0.093076      0.091690
O             0.306102     -0.251298     -0.156603
O            -0.047157     -0.259288      0.150370
O            -0.439229     -0.081839     -0.097989
O             0.062267     -0.095105     -0.148443
O             0.448977     -0.268859      0.100693
Fe            0.138205      0.079746      0.211107
Fe            0.353006      0.251143     -0.007375
Fe           -0.142599      0.259304     -0.239016
Fe           -0.347032      0.096065      0.014565
H            -0.074927      0.062325      0.044362
H            -0.419477      0.271509     -0.190038
H             0.104821      0.270024     -0.044626
H             0.434716      0.076592      0.204553
O            -0.196321      0.083532     -0.115615
O            -0.280751      0.251965      0.139031
O             0.185887      0.237704      0.094593
O             0.327475      0.068750     -0.157416
O            -0.050970      0.081287      0.147403
O            -0.442644      0.255507     -0.090312
O             0.053437      0.270569     -0.136902
O             0.459403      0.077114      0.105973
Fe            0.141096      0.404934      0.241539
Fe            0.355494     -0.417100     -0.042154
Fe           -0.145491     -0.415760     -0.244794
Fe           -0.359266      0.428902      0.035563
H            -0.087013      0.427082      0.059437
H            -0.404939     -0.410812     -0.211235
H             0.045633     -0.337156     -0.074367
H             0.407177      0.421773      0.227641
O            -0.214818      0.429303     -0.099470
O            -0.307738     -0.399691      0.166087
O             0.200177     -0.423117      0.096643
O             0.289038      0.398494     -0.141294
O            -0.048547      0.436871      0.152187
O            -0.445085     -0.422695     -0.106767
O             0.052178     -0.410066     -0.149092
O             0.452196      0.421187      0.119139
Fe            0.144713     -0.258257     -0.293568
Fe            0.354931     -0.058375      0.467234
Fe           -0.146719     -0.079905      0.281541
Fe           -0.361891     -0.246438     -0.479970
H            -0.109574     -0.239498     -0.466937
H            -0.411990     -0.066465      0.298192
H             0.096330     -0.073434      0.452283
H             0.419470     -0.239005     -0.307727
O            -0.197159     -0.244218      0.410430
O            -0.316599     -0.079602     -0.351822
O             0.196634     -0.073289     -0.401540
O             0.304994     -0.258327      0.365714
O            -0.052427     -0.257951     -0.381288
O            -0.443447     -0.069104      0.392097
O             0.054857     -0.095248      0.355733
O             0.448880     -0.244370     -0.405060
Fe            0.135696      0.096130     -0.272566
H             0.406481      0.192580     -0.405534
Fe           -0.135480      0.242389      0.279692
Fe           -0.360806      0.087938     -0.465045
H            -0.061582      0.088258     -0.453193
H            -0.393420      0.241291      0.310446
H             0.090922      0.246218      0.460927
H             0.387024      0.072167     -0.244572
O            -0.210155      0.087404      0.401011
O            -0.303507      0.273737     -0.345657
O             0.172443      0.257977     -0.400564
O             0.302074      0.092172      0.319241
O            -0.061138      0.076334     -0.353080
O            -0.448146      0.234451      0.396333
O             0.049826      0.235237      0.363270
O             0.443460      0.094418     -0.394296
Ni            0.146283      0.402624     -0.275638
Fe            0.348700     -0.427942      0.495268
Fe           -0.143612     -0.424107      0.283294
Fe           -0.373294      0.412050     -0.485939
H            -0.095923      0.410432     -0.453362
H            -0.436336     -0.382558      0.292694
H             0.071266     -0.426762      0.458399
H             0.425332      0.409547     -0.284308
O            -0.182902      0.418644      0.415523
O            -0.313149     -0.412917     -0.358967
O             0.192512     -0.431426     -0.388973
O             0.334253      0.408550      0.349885
O            -0.048461      0.409384     -0.354293
O            -0.443232     -0.410341      0.396116
O             0.049487     -0.425102      0.357591
O             0.441984      0.417856     -0.385117
H             0.140213     -0.439969      0.022836
H             0.274601      0.185663      0.352054
H             0.391007      0.334972      0.391740
data_nwchem_pspw

_audit_creation_date   Wed Mar  1 14:32:42 2023
_audit_creation_method    generated by PSPW module of NWChem


_cell_length_a            10.0667
_cell_length_b             9.1552
_cell_length_c             9.2041
_cell_angle_alpha         90.0000
_cell_angle_beta          90.0000
_cell_angle_gamma         90.0000

_symmetry_space_group_name_H-M     P1  

loop_
_atom_site_type_symbol
_atom_site_fract_x
_atom_site_fract_y
_atom_site_fract_z
Fe            0.137209     -0.239488      0.221787
Fe            0.351195     -0.086280     -0.027104
Fe           -0.145712     -0.099911     -0.246746
Fe           -0.345885     -0.232373      0.023966
H            -0.090765     -0.234430      0.050975
H            -0.417774     -0.070401     -0.211368
H             0.082856     -0.078524     -0.048835
H             0.430582     -0.261278      0.195750
O            -0.197741     -0.249088     -0.100767
O            -0.304105     -0.072724      0.158992
O             0.190795     -0.080868      0.090663
O             0.310642     -0.265751     -0.161469
O            -0.059763     -0.261021      0.148149
O            -0.456550     -0.081888     -0.115801
O             0.047602     -0.071435     -0.147365
O             0.459833     -0.236737      0.101926
Fe            0.148169      0.092451      0.216196
Fe            0.361960      0.248565     -0.022700
Fe           -0.144175      0.236274     -0.222784
Fe           -0.364153      0.086879      0.020459
H            -0.094709      0.086900      0.041224
H            -0.391542      0.237565     -0.210322
H             0.095162      0.269735     -0.030509
H             0.425438      0.103156      0.207987
O            -0.199463      0.092209     -0.097608
O            -0.316328      0.241025      0.160825
O             0.205191      0.242383      0.098487
O             0.309144      0.078195     -0.162143
O            -0.058803      0.084742      0.141539
O            -0.438140      0.243665     -0.110886
O             0.052609      0.260790     -0.132233
O             0.441036      0.086200      0.107301
Fe            0.136907      0.400967      0.233296
Fe            0.371898     -0.415666     -0.026842
Fe           -0.140998     -0.418337     -0.218527
Fe           -0.349056      0.418971      0.033451
H            -0.096283      0.400833      0.043778
H            -0.404113     -0.427448     -0.196417
H             0.050394     -0.361901     -0.043419
H             0.400217      0.432753      0.199001
O            -0.201365      0.407851     -0.099911
O            -0.305774     -0.407419      0.169319
O             0.202411     -0.419291      0.098754
O             0.310287      0.421491     -0.150876
O            -0.054406      0.410079      0.141427
O            -0.431965     -0.427706     -0.094886
O             0.047466     -0.398066     -0.140106
O             0.444395      0.416827      0.104490
Fe            0.149220     -0.255922     -0.289131
Fe            0.350205     -0.080820      0.464440
Fe           -0.139706     -0.082887      0.272181
Fe           -0.367719     -0.242869     -0.466265
H            -0.050889     -0.280361     -0.467797
H            -0.408624     -0.107216      0.306211
H             0.080213     -0.054596      0.439382
H             0.412516     -0.236437     -0.307818
O            -0.197173     -0.243943      0.409643
O            -0.305855     -0.082452     -0.344202
O             0.201236     -0.082426     -0.395651
O             0.304628     -0.241471      0.335551
O            -0.050738     -0.262301     -0.363804
O            -0.448647     -0.065211      0.394021
O             0.063776     -0.075003      0.338236
O             0.440926     -0.235645     -0.402710
Fe            0.142037      0.087623     -0.272699
H             0.431254      0.180171     -0.446244
Fe           -0.152737      0.248683      0.275678
Fe           -0.341591      0.081402     -0.486410
H            -0.085987      0.072976     -0.447079
H            -0.421119      0.244484      0.315020
H             0.075623      0.249559      0.459108
H             0.403878      0.104341     -0.301674
O            -0.176396      0.073751      0.409495
O            -0.313662      0.232308     -0.337427
O             0.186915      0.251595     -0.396208
O             0.301753      0.106956      0.358510
O            -0.059724      0.075494     -0.342764
O            -0.453207      0.261669      0.412997
O             0.051465      0.245710      0.359307
O             0.442068      0.087886     -0.395791
Ni            0.151237      0.402099     -0.277840
Fe            0.360565     -0.414424      0.463475
Fe           -0.149798     -0.414609      0.295729
Fe           -0.364959      0.412184     -0.456738
H            -0.086698      0.419974     -0.440750
H            -0.402878     -0.406326      0.297938
H             0.067630     -0.446241      0.441849
H             0.416120      0.409112     -0.296080
O            -0.189115      0.405987      0.411976
O            -0.321630     -0.398239     -0.331915
O             0.190767     -0.433755     -0.414323
O             0.307488      0.422388      0.339389
O            -0.058282      0.414728     -0.338866
O            -0.443861     -0.411351      0.399782
O             0.051044     -0.426125      0.341652
O             0.446387      0.419190     -0.397613
H             0.163588     -0.452298      0.009687
H             0.260398      0.155231      0.440894
H             0.367552      0.344644      0.365288
data_nwchem_pspw

_audit_creation_date   Wed Mar  1 17:30:39 2023
_audit_creation_method    generated by PSPW module of NWChem


_cell_length_a            10.0667
_cell_length_b             9.1552
_cell_length_c             9.2041
_cell_angle_alpha         90.0000
_cell_angle_beta          90.0000
_cell_angle_gamma         90.0000

_symmetry_space_group_name_H-M     P1  

loop_
_atom_site_type_symbol
_atom_site_fract_x
_atom_site_fract_y
_atom_site_fract_z
Fe            0.149233     -0.267149      0.238349
Fe            0.351623     -0.081397     -0.028183
Fe           -0.143503     -0.081690     -0.238476
Fe           -0.348324     -0.253446      0.018458
H            -0.086624     -0.271454      0.055341
H            -0.420913     -0.086329     -0.218012
H             0.091929     -0.075866     -0.051688
H             0.421196     -0.276521      0.202515
O            -0.203357     -0.238913     -0.107517
O            -0.299701     -0.084298      0.140344
O             0.204406     -0.103205      0.091962
O             0.306409     -0.246110     -0.160537
O            -0.048513     -0.256576      0.147303
O            -0.445326     -0.085780     -0.117961
O             0.052404     -0.068344     -0.149111
O             0.456512     -0.267362      0.102142
Fe            0.138259      0.065283      0.208269
Fe            0.353666      0.260559     -0.012881
Fe           -0.139168      0.259070     -0.211093
Fe           -0.356318      0.081115      0.013894
H            -0.089258      0.102436      0.038911
H            -0.436573      0.280848     -0.205235
H             0.098779      0.239653     -0.050563
H             0.422036      0.074221      0.195041
O            -0.183799      0.087369     -0.093235
O            -0.296182      0.248699      0.147167
O             0.194553      0.231917      0.084381
O             0.296350      0.077509     -0.164908
O            -0.054037      0.087452      0.138146
O            -0.465178      0.254768     -0.107381
O             0.060613      0.257040     -0.152691
O             0.442703      0.078374      0.094109
Fe            0.129835      0.395888      0.233065
Fe            0.373955     -0.410562     -0.041235
Fe           -0.148174     -0.406951     -0.213662
Fe           -0.344978      0.416364      0.030490
H            -0.112638      0.410425      0.066597
H            -0.405721     -0.416043     -0.217341
H             0.030663     -0.298518     -0.048766
H             0.426825      0.423523      0.210164
O            -0.182241      0.421457     -0.071189
O            -0.309022     -0.407200      0.168803
O             0.212816     -0.438296      0.090614
O             0.288813      0.414481     -0.146767
O            -0.062296      0.423583      0.159062
O            -0.434713     -0.426611     -0.120096
O             0.051263     -0.364782     -0.125580
O             0.448926      0.408942      0.108935
Fe            0.147241     -0.245516     -0.281805
Fe            0.355784     -0.070534      0.480190
Fe           -0.146800     -0.080444      0.256669
Fe           -0.348614     -0.248191     -0.491695
H            -0.076194     -0.247509     -0.457061
H            -0.434414     -0.103553      0.280060
H             0.068297     -0.094087      0.435987
H             0.435353     -0.229546     -0.299658
O            -0.179449     -0.234717      0.408164
O            -0.304850     -0.074620     -0.351668
O             0.180457     -0.088229     -0.416048
O             0.303775     -0.257492      0.363528
O            -0.055270     -0.247713     -0.354485
O            -0.455315     -0.083024      0.380181
O             0.055652     -0.093114      0.335564
O             0.450735     -0.247388     -0.394676
Fe            0.127436      0.083744     -0.305608
H             0.387084      0.196955     -0.415212
Fe           -0.139795      0.246479      0.291805
Fe           -0.374215      0.090977     -0.470646
H            -0.101088      0.079039     -0.460363
H            -0.391680      0.258555      0.293715
H             0.086468      0.238620      0.467098
H             0.362738      0.114869     -0.240551
O            -0.199599      0.083799      0.407706
O            -0.310156      0.255425     -0.336769
O             0.174378      0.245627     -0.423953
O             0.308171      0.088711      0.333183
O            -0.071855      0.086875     -0.358050
O            -0.429852      0.253444      0.392300
O             0.055920      0.238900      0.353047
O             0.427954      0.101738     -0.397621
Ni            0.142650      0.403734     -0.275701
Fe            0.358905     -0.424022      0.498979
Fe           -0.130428     -0.415350      0.293465
Fe           -0.359127      0.419214     -0.466648
H            -0.098635      0.410107     -0.424449
H            -0.404229     -0.419315      0.303519
H             0.096696     -0.432749      0.460147
H             0.413636      0.419905     -0.285474
O            -0.183162      0.418942      0.430793
O            -0.298185     -0.415413     -0.350438
O             0.174751     -0.435198     -0.384087
O             0.317688      0.431523      0.338874
O            -0.049097      0.419046     -0.331609
O            -0.441247     -0.419005      0.402651
O             0.055257     -0.433286      0.363665
O             0.447161      0.428257     -0.382276
H             0.143541     -0.436104      0.015129
H             0.278915      0.171406      0.386707
H             0.348757      0.336915      0.377040
data_nwchem_pspw

_audit_creation_date   Wed Mar  1 20:29:29 2023
_audit_creation_method    generated by PSPW module of NWChem


_cell_length_a            10.0667
_cell_length_b             9.1552
_cell_length_c             9.2041
_cell_angle_alpha         90.0000
_cell_angle_beta          90.0000
_cell_angle_gamma         90.0000

_symmetry_space_group_name_H-M     P1  

loop_
_atom_site_type_symbol
_atom_site_fract_x
_atom_site_fract_y
_atom_site_fract_z
Fe            0.156447     -0.242416      0.225955
Fe            0.347573     -0.097658     -0.049526
Fe           -0.146426     -0.077218     -0.233189
Fe           -0.346291     -0.255804      0.013932
H            -0.084878     -0.234585      0.050251
H            -0.392610     -0.087791     -0.185429
H             0.099075     -0.048352     -0.035956
H             0.430215     -0.226669      0.188394
O            -0.196944     -0.243334     -0.099969
O            -0.311716     -0.093168      0.153447
O             0.204846     -0.076737      0.093409
O             0.306710     -0.257909     -0.166894
O            -0.042680     -0.246136      0.141664
O            -0.447398     -0.087269     -0.103720
O             0.060990     -0.058351     -0.131621
O             0.462617     -0.253408      0.090970
Fe            0.130080      0.091289      0.223956
Fe            0.365984      0.246990     -0.029559
Fe           -0.151442      0.244525     -0.226776
Fe           -0.362058      0.079873      0.032949
H            -0.096626      0.093479      0.041412
H            -0.408951      0.267440     -0.201752
H             0.100655      0.255698     -0.052103
H             0.426593      0.099003      0.199616
O            -0.199489      0.087618     -0.104398
O            -0.300950      0.240505      0.161088
O             0.196543      0.251326      0.100751
O             0.319602      0.080395     -0.170885
O            -0.069715      0.086594      0.136914
O            -0.444713      0.258326     -0.102005
O             0.061294      0.254593     -0.151972
O             0.438770      0.092281      0.094167
Fe            0.133168      0.415039      0.232967
Fe            0.370236     -0.417780     -0.018192
Fe           -0.148891     -0.417789     -0.237818
Fe           -0.349122      0.419275      0.039641
H            -0.085375      0.424989      0.055017
H            -0.423438     -0.393461     -0.206061
H             0.023811     -0.362018     -0.040744
H             0.414377      0.417305      0.197634
O            -0.197591      0.422670     -0.099512
O            -0.305022     -0.406087      0.159868
O             0.192665     -0.422380      0.091720
O             0.289276      0.412585     -0.139195
O            -0.063837      0.420829      0.153372
O            -0.454166     -0.410068     -0.108943
O             0.037360     -0.411529     -0.131466
O             0.459732      0.412411      0.102566
Fe            0.132504     -0.246883     -0.271815
Fe            0.359648     -0.107838      0.472198
Fe           -0.135963     -0.079135      0.272865
Fe           -0.365458     -0.255622     -0.470208
H            -0.110250     -0.247015     -0.474519
H            -0.417015     -0.111642      0.290645
H             0.109334     -0.075599      0.462012
H             0.387149     -0.255500     -0.269073
O            -0.195223     -0.254050      0.403530
O            -0.314503     -0.088693     -0.346710
O             0.196372     -0.081438     -0.414489
O             0.304309     -0.270852      0.351242
O            -0.068088     -0.239414     -0.371574
O            -0.443109     -0.097675      0.397405
O             0.063261     -0.081089      0.355506
O             0.430427     -0.246318     -0.376003
Fe            0.154428      0.081568     -0.283558
H             0.432114      0.198724     -0.409611
Fe           -0.147092      0.263526      0.281386
Fe           -0.346209      0.083997     -0.496728
H            -0.080553      0.082557     -0.453792
H            -0.398943      0.251648      0.300961
H             0.134801      0.246893     -0.492378
H             0.413405      0.081589     -0.284668
O            -0.175337      0.082537      0.403115
O            -0.311391      0.238119     -0.349579
O             0.200579      0.251668     -0.415371
O             0.290089      0.078884      0.360347
O            -0.042764      0.085962     -0.361326
O            -0.444405      0.267259      0.394728
O             0.054263      0.254952      0.351957
O             0.445527      0.094492     -0.392093
Ni            0.141585      0.408653     -0.269998
Fe            0.354947     -0.425743     -0.492135
Fe           -0.140831     -0.408063      0.271325
Fe           -0.361145      0.414217     -0.472181
H            -0.067406      0.416654     -0.452436
H            -0.420596     -0.401544      0.308929
H             0.074716     -0.431109      0.442310
H             0.411271      0.423127     -0.284578
O            -0.182155      0.431318      0.414886
O            -0.313806     -0.419948     -0.336985
O             0.192882     -0.431909     -0.378815
O             0.317061      0.425039      0.335049
O            -0.040826      0.426322     -0.349210
O            -0.457990     -0.403110      0.406829
O             0.053512     -0.403007      0.344158
O             0.437164      0.413385     -0.385348
H             0.142044     -0.421394      0.002024
H             0.282928      0.158705      0.429687
H             0.362976      0.336212      0.362935
data_nwchem_pspw

_audit_creation_date   Wed Mar  1 23:28:38 2023
_audit_creation_method    generated by PSPW module of NWChem


_cell_length_a            10.0667
_cell_length_b             9.1552
_cell_length_c             9.2041
_cell_angle_alpha         90.0000
_cell_angle_beta          90.0000
_cell_angle_gamma         90.0000

_symmetry_space_group_name_H-M     P1  

loop_
_atom_site_type_symbol
_atom_site_fract_x
_atom_site_fract_y
_atom_site_fract_z
Fe            0.141385     -0.232120      0.214337
Fe            0.348416     -0.082779     -0.033817
Fe           -0.127172     -0.084337     -0.234696
Fe           -0.354910     -0.253343      0.025017
H            -0.092394     -0.237978      0.052064
H            -0.407512     -0.075694     -0.211075
H             0.095082     -0.085931     -0.049563
H             0.434237     -0.243392      0.198368
O            -0.187622     -0.245582     -0.084487
O            -0.304187     -0.087755      0.162530
O             0.191640     -0.083299      0.087697
O             0.315482     -0.259811     -0.155244
O            -0.055301     -0.255113      0.149591
O            -0.451707     -0.077095     -0.117672
O             0.053438     -0.058850     -0.142913
O             0.452134     -0.246315      0.095087
Fe            0.136774      0.095477      0.221796
Fe            0.355649      0.242813     -0.026650
Fe           -0.142978      0.251132     -0.217584
Fe           -0.352886      0.077023      0.030935
H            -0.089204      0.067648      0.053258
H            -0.415189      0.261667     -0.208899
H             0.106058      0.251170     -0.062437
H             0.414615      0.091316      0.197713
O            -0.196642      0.082856     -0.102102
O            -0.297937      0.241727      0.160179
O             0.188863      0.234722      0.092510
O             0.296989      0.080198     -0.158928
O            -0.061898      0.080419      0.155331
O            -0.453179      0.242004     -0.101932
O             0.060023      0.256851     -0.154991
O             0.447798      0.070505      0.099218
Fe            0.146762      0.405889      0.232012
Fe            0.379405     -0.418867     -0.031742
Fe           -0.155138     -0.413610     -0.221872
Fe           -0.357367      0.404467      0.028218
H            -0.089116      0.398680      0.045268
H            -0.428062     -0.405955     -0.211523
H             0.007958     -0.348675     -0.054013
H             0.395180      0.410774      0.197022
O            -0.188922      0.415106     -0.087802
O            -0.314188     -0.418702      0.156362
O             0.216093     -0.409454      0.097978
O             0.293805      0.407653     -0.165674
O            -0.048784      0.415243      0.141240
O            -0.435043     -0.425217     -0.104785
O             0.059619     -0.397870     -0.125521
O             0.427685      0.405133      0.092842
Fe            0.148151     -0.248668     -0.261950
Fe            0.357284     -0.096805      0.464758
Fe           -0.144729     -0.083254      0.283087
Fe           -0.354975     -0.234829     -0.470095
H            -0.093354     -0.276591     -0.448056
H            -0.406279     -0.083387      0.305753
H             0.086094     -0.067364      0.452036
H             0.404008     -0.245978     -0.310667
O            -0.208786     -0.260838      0.405471
O            -0.303676     -0.066329     -0.339704
O             0.186352     -0.091097     -0.409196
O             0.293857     -0.258439      0.351763
O            -0.048817     -0.265952     -0.349514
O            -0.442398     -0.083665      0.403899
O             0.059083     -0.063528      0.349639
O             0.449686     -0.239066     -0.393888
Fe            0.136772      0.084760     -0.298601
H             0.387183      0.168214     -0.431017
Fe           -0.118181      0.254080      0.288001
Fe           -0.357401      0.092164     -0.466976
H            -0.090841      0.094672     -0.458707
H            -0.403046      0.240459      0.304914
H             0.142681      0.251300      0.496479
H             0.368409      0.072194     -0.287068
O            -0.195372      0.081364      0.410348
O            -0.316820      0.268266     -0.329442
O             0.205145      0.251656     -0.416714
O             0.309141      0.077710      0.339118
O            -0.055485      0.091453     -0.354777
O            -0.447296      0.248335      0.400967
O             0.057784      0.235645      0.369150
O             0.426247      0.077489     -0.388145
Ni            0.142088      0.410208     -0.274255
Fe            0.344147     -0.416322      0.492901
Fe           -0.150749     -0.428076      0.258952
Fe           -0.366831      0.417411     -0.491236
H            -0.069393      0.442801     -0.442615
H            -0.397301     -0.404799      0.308622
H             0.075668     -0.399814      0.448483
H             0.396410      0.397301     -0.315388
O            -0.201989      0.409263      0.405247
O            -0.308831     -0.410569     -0.349095
O             0.192717     -0.430768     -0.386158
O             0.316782      0.427585      0.339976
O            -0.040482      0.439846     -0.345300
O            -0.444558     -0.411996      0.397652
O             0.047290     -0.410042      0.350090
O             0.440994      0.423714     -0.405783
H             0.149693     -0.419271      0.015855
H             0.294046      0.167070      0.386760
H             0.369766      0.354915      0.391883
data_nwchem_pspw

_audit_creation_date   Thu Mar  2 02:26:42 2023
_audit_creation_method    generated by PSPW module of NWChem


_cell_length_a            10.0667
_cell_length_b             9.1552
_cell_length_c             9.2041
_cell_angle_alpha         90.0000
_cell_angle_beta          90.0000
_cell_angle_gamma         90.0000

_symmetry_space_group_name_H-M     P1  

loop_
_atom_site_type_symbol
_atom_site_fract_x
_atom_site_fract_y
_atom_site_fract_z
Fe            0.142653     -0.248466      0.234896
Fe            0.350666     -0.068776      0.002993
Fe           -0.150502     -0.080173     -0.220716
Fe           -0.355266     -0.260259      0.017991
H            -0.083178     -0.245842      0.050727
H            -0.412830     -0.081653     -0.197636
H             0.108414     -0.082187     -0.044945
H             0.410968     -0.270218      0.208494
O            -0.174983     -0.250298     -0.087326
O            -0.302238     -0.082217      0.136399
O             0.183855     -0.080179      0.106013
O             0.307705     -0.243801     -0.140983
O            -0.033321     -0.260121      0.143955
O            -0.442509     -0.078523     -0.097174
O             0.064495     -0.081946     -0.140277
O             0.447086     -0.250590      0.112715
Fe            0.133031      0.081042      0.228616
Fe            0.360355      0.259072     -0.007971
Fe           -0.135980      0.253082     -0.237517
Fe           -0.351674      0.090251      0.021996
H            -0.089519      0.097567      0.056708
H            -0.393553      0.260059     -0.205167
H             0.105497      0.251476     -0.076926
H             0.438845      0.090336      0.217497
O            -0.182367      0.094173     -0.096090
O            -0.296644      0.256645      0.150057
O             0.185168      0.232680      0.088824
O             0.303747      0.086777     -0.163054
O            -0.051263      0.068350      0.151507
O            -0.439440      0.257743     -0.114396
O             0.068266      0.249373     -0.179464
O             0.453548      0.093719      0.114263
Fe            0.133613      0.395038      0.231244
Fe            0.368101     -0.414446     -0.052372
Fe           -0.143377     -0.411714     -0.225037
Fe           -0.352330      0.413393      0.022571
H            -0.099755      0.408622      0.035861
H            -0.398778     -0.403805     -0.219944
H             0.010984     -0.426269     -0.028199
H             0.429887      0.428293      0.198136
O            -0.195123      0.420132     -0.108396
O            -0.299929     -0.410490      0.148076
O             0.214396     -0.430858      0.096010
O             0.293710      0.406137     -0.158194
O            -0.054288      0.433826      0.131859
O            -0.442726     -0.403761     -0.122398
O             0.045121     -0.429137     -0.125847
O             0.449034      0.418346      0.090928
Fe            0.147484     -0.251077     -0.256374
Fe            0.349387     -0.087937      0.468449
Fe           -0.147999     -0.092607      0.268122
Fe           -0.353701     -0.246888     -0.473829
H            -0.079423     -0.248640     -0.447836
H            -0.406505     -0.089466      0.287323
H             0.094402     -0.085947      0.451565
H             0.427296     -0.235994     -0.283545
O            -0.176222     -0.250694      0.409943
O            -0.309610     -0.086689     -0.343310
O             0.189140     -0.105065     -0.403765
O             0.304606     -0.257504      0.351553
O            -0.055739     -0.253413     -0.341523
O            -0.446697     -0.092215      0.385168
O             0.058840     -0.071445      0.358171
O             0.439906     -0.239961     -0.389403
Fe            0.146445      0.086392     -0.308709
H             0.410589      0.158112     -0.404932
Fe           -0.142103      0.245662      0.289408
Fe           -0.363754      0.078461     -0.466977
H            -0.090724      0.051479     -0.454512
H            -0.397190      0.268169      0.299563
H             0.115136      0.263419      0.492702
H             0.381935      0.058032     -0.242544
O            -0.192301      0.077415      0.407897
O            -0.308875      0.251029     -0.347594
O             0.178401      0.259604     -0.419285
O             0.309218      0.089697      0.339398
O            -0.055940      0.064919     -0.357643
O            -0.455298      0.260525      0.382712
O             0.051456      0.259997      0.362455
O             0.437431      0.060785     -0.387017
Ni            0.136536      0.414773     -0.282304
Fe            0.357602     -0.407508      0.493946
Fe           -0.141718     -0.416889      0.276247
Fe           -0.370127      0.414174     -0.481004
H            -0.069734      0.431888     -0.478218
H            -0.403012     -0.411181      0.303979
H             0.105447     -0.426356      0.465857
H             0.402811      0.420524     -0.300636
O            -0.203750      0.420591      0.390940
O            -0.299604     -0.417452     -0.359447
O             0.187211     -0.431129     -0.379029
O             0.323324      0.431941      0.328910
O            -0.060374      0.417446     -0.373584
O            -0.446241     -0.409493      0.392710
O             0.069426     -0.415840      0.369671
O             0.442857      0.433130     -0.397609
H             0.142171     -0.447102      0.032168
H             0.296600      0.184479      0.376395
H             0.376201      0.353764      0.367090
data_nwchem_pspw

_audit_creation_date   Thu Mar  2 05:26:12 2023
_audit_creation_method    generated by PSPW module of NWChem


_cell_length_a            10.0667
_cell_length_b             9.1552
_cell_length_c             9.2041
_cell_angle_alpha         90.0000
_cell_angle_beta          90.0000
_cell_angle_gamma         90.0000

_symmetry_space_group_name_H-M     P1  

loop_
_atom_site_type_symbol
_atom_site_fract_x
_atom_site_fract_y
_atom_site_fract_z
Fe            0.161160     -0.248497      0.231018
Fe            0.358708     -0.096690     -0.028241
Fe           -0.143831     -0.076221     -0.208618
Fe           -0.335040     -0.228669      0.048223
H            -0.078212     -0.264447      0.047203
H            -0.428786     -0.085252     -0.188133
H             0.097825     -0.085881     -0.045949
H             0.438233     -0.249974      0.197087
O            -0.190089     -0.253977     -0.091335
O            -0.306473     -0.064839      0.178299
O             0.186376     -0.092445      0.080426
O             0.282441     -0.260565     -0.149368
O            -0.051895     -0.263511      0.147931
O            -0.443049     -0.088906     -0.084023
O             0.055158     -0.073354     -0.144332
O             0.452078     -0.253310      0.093538
Fe            0.132935      0.081658      0.230193
Fe            0.344367      0.246842     -0.038748
Fe           -0.145201      0.247392     -0.241952
Fe           -0.365068      0.097932      0.026601
H            -0.092075      0.086539      0.042762
H            -0.405879      0.232266     -0.217451
H             0.084727      0.257484     -0.052893
H             0.404838      0.090375      0.201389
O            -0.210124      0.092896     -0.105829
O            -0.307376      0.256437      0.162985
O             0.195978      0.230058      0.097245
O             0.312500      0.080107     -0.169322
O            -0.057253      0.083206      0.136330
O            -0.435266      0.240076     -0.121363
O             0.053292      0.256473     -0.158538
O             0.446075      0.089871      0.103696
Fe            0.134441      0.407131      0.242211
Fe            0.358791     -0.429795     -0.042758
Fe           -0.145093     -0.426616     -0.211250
Fe           -0.355001      0.422799      0.023266
H            -0.101557      0.411248      0.040282
H            -0.429601     -0.398563     -0.192333
H             0.062341      0.475177     -0.068494
H             0.394045      0.402029      0.177537
O            -0.196171      0.406844     -0.094842
O            -0.330846     -0.415220      0.157642
O             0.196716     -0.417904      0.086693
O             0.296169      0.406251     -0.177422
O            -0.054352      0.424196      0.137843
O            -0.446316     -0.419379     -0.092175
O             0.049811     -0.436462     -0.121422
O             0.435552      0.406736      0.082307
Fe            0.131327     -0.260282     -0.278267
Fe            0.366876     -0.066244      0.476308
Fe           -0.128400     -0.092687      0.284662
Fe           -0.346357     -0.234938     -0.472371
H            -0.089478     -0.252938     -0.451504
H            -0.392591     -0.070841      0.286588
H             0.100872     -0.066709      0.455590
H             0.389780     -0.243290     -0.307414
O            -0.180017     -0.258741      0.410638
O            -0.312107     -0.067485     -0.337603
O             0.196428     -0.092072     -0.407470
O             0.320606     -0.243414      0.345763
O            -0.055895     -0.241717     -0.350136
O            -0.442144     -0.083656      0.392382
O             0.064913     -0.077823      0.358243
O             0.434552     -0.246180     -0.393156
Fe            0.139903      0.073368     -0.286130
H             0.408733      0.198612     -0.408112
Fe           -0.137715      0.246715      0.271574
Fe           -0.365036      0.084200     -0.484536
H            -0.092703      0.090406     -0.456509
H            -0.420546      0.256097      0.311916
H             0.116372      0.261365      0.490702
H             0.394507      0.080582     -0.275835
O            -0.183710      0.081816      0.409314
O            -0.301224      0.258426     -0.356593
O             0.182983      0.250400     -0.426687
O             0.296714      0.087458      0.346034
O            -0.054639      0.080329     -0.355581
O            -0.468463      0.244524      0.403335
O             0.039135      0.243961      0.355521
O             0.440053      0.102831     -0.382677
Ni            0.142872      0.404935     -0.297726
Fe            0.353545     -0.409806      0.482701
Fe           -0.146171     -0.418586      0.269388
Fe           -0.352656      0.421625     -0.473110
H            -0.088881      0.410619     -0.448997
H            -0.402781     -0.398753      0.314688
H             0.090107     -0.431214      0.454562
H             0.414559      0.416331     -0.311851
O            -0.198660      0.406218      0.404016
O            -0.295500     -0.400303     -0.342505
O             0.181249     -0.422099     -0.395350
O             0.311015      0.421808      0.345400
O            -0.048061      0.420780     -0.350574
O            -0.425554     -0.408470      0.418440
O             0.058015     -0.410429      0.357290
O             0.460255      0.431708     -0.403587
H             0.120637     -0.388185      0.026732
H             0.309040      0.169163      0.412824
H             0.384405      0.360141      0.377271
data_nwchem_pspw

_audit_creation_date   Thu Mar  2 08:27:17 2023
_audit_creation_method    generated by PSPW module of NWChem


_cell_length_a            10.0667
_cell_length_b             9.1552
_cell_length_c             9.2041
_cell_angle_alpha         90.0000
_cell_angle_beta          90.0000
_cell_angle_gamma         90.0000

_symmetry_space_group_name_H-M     P1  

loop_
_atom_site_type_symbol
_atom_site_fract_x
_atom_site_fract_y
_atom_site_fract_z
Fe            0.157499     -0.253506      0.220879
Fe            0.370984     -0.088873     -0.014147
Fe           -0.149585     -0.068584     -0.222883
Fe           -0.361917     -0.255251      0.037849
H            -0.080757     -0.251433      0.055638
H            -0.411416     -0.069255     -0.198895
H             0.087298     -0.081365     -0.044438
H             0.405389     -0.275133      0.213050
O            -0.202286     -0.251404     -0.101720
O            -0.308498     -0.093394      0.149602
O             0.212212     -0.092510      0.099928
O             0.293730     -0.241496     -0.140446
O            -0.047052     -0.248909      0.152532
O            -0.451313     -0.065926     -0.097025
O             0.065095     -0.081831     -0.148225
O             0.446850     -0.254692      0.118931
Fe            0.137295      0.081593      0.205424
Fe            0.346225      0.265344     -0.023760
Fe           -0.160454      0.260918     -0.233531
Fe           -0.347173      0.108388      0.024223
H            -0.095801      0.060646      0.040676
H            -0.425658      0.287965     -0.221870
H             0.098252      0.264692     -0.060301
H             0.433869      0.122076      0.198288
O            -0.184659      0.105887     -0.096326
O            -0.299498      0.268347      0.156699
O             0.180596      0.259292      0.086817
O             0.306147      0.092135     -0.161662
O            -0.060548      0.063543      0.139342
O            -0.446556      0.269946     -0.121720
O             0.058519      0.244518     -0.161620
O             0.462917      0.091287      0.101478
Fe            0.147062      0.404256      0.245448
Fe            0.367709     -0.416556     -0.029876
Fe           -0.146894     -0.411083     -0.237788
Fe           -0.365061      0.426827      0.024529
H            -0.103244      0.418249      0.047067
H            -0.407955     -0.405530     -0.207328
H             0.014070     -0.439397     -0.043955
H             0.417403      0.408552      0.200406
O            -0.201017      0.428373     -0.094179
O            -0.314110     -0.422835      0.169411
O             0.216969     -0.426315      0.096409
O             0.296767      0.419913     -0.157434
O            -0.047248      0.428869      0.142387
O            -0.450034     -0.414281     -0.102680
O             0.042990     -0.420155     -0.140163
O             0.444772      0.418168      0.095873
Fe            0.148272     -0.256267     -0.274878
Fe            0.365359     -0.081075      0.468494
Fe           -0.148042     -0.088435      0.274993
Fe           -0.357574     -0.254485     -0.478715
H            -0.092627     -0.219053     -0.441253
H            -0.401484     -0.079593      0.284646
H             0.103627     -0.069767      0.447073
H             0.440497     -0.236124     -0.296372
O            -0.186675     -0.249880      0.413348
O            -0.316551     -0.085783     -0.340297
O             0.207855     -0.089996     -0.400497
O             0.303598     -0.252182      0.355574
O            -0.049401     -0.229860     -0.349131
O            -0.432821     -0.091594      0.392071
O             0.065830     -0.085219      0.352114
O             0.452267     -0.252159     -0.395928
Fe            0.134501      0.070817     -0.288310
H             0.411109      0.168291     -0.394451
Fe           -0.129310      0.250127      0.280136
Fe           -0.364782      0.081958     -0.477320
H            -0.099440      0.103501     -0.452176
H            -0.408767      0.232149      0.302532
H             0.128108      0.240254      0.490323
H             0.382024      0.068799     -0.240657
O            -0.190420      0.088089      0.415343
O            -0.313710      0.248299     -0.350650
O             0.193355      0.247923     -0.426314
O             0.311363      0.088014      0.345793
O            -0.066153      0.083417     -0.352390
O            -0.453139      0.242619      0.397003
O             0.049158      0.237456      0.344280
O             0.449042      0.071329     -0.379603
Ni            0.130785      0.399058     -0.281207
Fe            0.356258     -0.422381      0.489214
Fe           -0.136900     -0.423779      0.283737
Fe           -0.367082      0.414965     -0.486590
H            -0.091971      0.398869     -0.447555
H            -0.406158     -0.415892      0.298987
H             0.081607     -0.413598      0.458907
H             0.397194      0.416071     -0.303142
O            -0.192692      0.420735      0.414883
O            -0.318261     -0.419812     -0.332135
O             0.194246     -0.430899     -0.386765
O             0.344739      0.407015      0.331144
O            -0.051753      0.411271     -0.349863
O            -0.453587     -0.408972      0.398405
O             0.062732     -0.428121      0.357402
O             0.441142      0.412127     -0.399151
H             0.150003     -0.409884      0.021103
H             0.300960      0.157776      0.423204
H             0.377966      0.337238      0.396285
data_nwchem_pspw

_audit_creation_date   Thu Mar  2 11:27:51 2023
_audit_creation_method    generated by PSPW module of NWChem


_cell_length_a            10.0667
_cell_length_b             9.1552
_cell_length_c             9.2041
_cell_angle_alpha         90.0000
_cell_angle_beta          90.0000
_cell_angle_gamma         90.0000

_symmetry_space_group_name_H-M     P1  

loop_
_atom_site_type_symbol
_atom_site_fract_x
_atom_site_fract_y
_atom_site_fract_z
Fe            0.147357     -0.244589      0.241090
Fe            0.364458     -0.085676     -0.030126
Fe           -0.149859     -0.070126     -0.218179
Fe           -0.349661     -0.260449      0.029785
H            -0.091470     -0.228261      0.053342
H            -0.398389     -0.075245     -0.194794
H             0.080673     -0.088895     -0.045391
H             0.410848     -0.255016      0.207687
O            -0.194029     -0.246760     -0.099213
O            -0.298836     -0.087672      0.142174
O             0.200220     -0.070626      0.101862
O             0.306022     -0.256131     -0.155456
O            -0.044104     -0.246461      0.142987
O            -0.439550     -0.096652     -0.102648
O             0.043866     -0.081449     -0.142636
O             0.448347     -0.255488      0.106246
Fe            0.145178      0.100586      0.223236
Fe            0.357576      0.238950     -0.024959
Fe           -0.147365      0.258637     -0.240879
Fe           -0.350938      0.074066      0.023272
H            -0.095830      0.101795      0.048652
H            -0.426461      0.231699     -0.197296
H             0.095693      0.268041     -0.061475
H             0.408334      0.066138      0.189639
O            -0.184134      0.093979     -0.094012
O            -0.298583      0.244939      0.162292
O             0.200309      0.257997      0.088285
O             0.315605      0.087901     -0.176943
O            -0.056770      0.112192      0.147236
O            -0.449754      0.245265     -0.099827
O             0.066500      0.260172     -0.163281
O             0.447108      0.070029      0.093308
Fe            0.124540      0.415207      0.235269
Fe            0.371577     -0.422746     -0.041384
Fe           -0.151430     -0.409875     -0.235650
Fe           -0.353771      0.407886      0.033058
H            -0.105080      0.412486      0.041707
H            -0.388526     -0.433554     -0.210828
H             0.010924     -0.434914     -0.045723
H             0.425472      0.418089      0.201286
O            -0.183617      0.413562     -0.091071
O            -0.305081     -0.429777      0.156507
O             0.205519     -0.416982      0.103691
O             0.311741      0.416951     -0.159342
O            -0.047771      0.429777      0.130491
O            -0.433667     -0.427125     -0.112897
O             0.042976     -0.419317     -0.141231
O             0.455987      0.402891      0.103561
Fe            0.134127     -0.244664     -0.272422
Fe            0.354851     -0.085699      0.475723
Fe           -0.119241     -0.082476      0.273922
Fe           -0.353392     -0.251318     -0.473835
H            -0.096168     -0.247408     -0.461928
H            -0.403051     -0.089993      0.297441
H             0.103385     -0.092920      0.457861
H             0.419143     -0.244805     -0.291677
O            -0.185618     -0.241174      0.412866
O            -0.318637     -0.082850     -0.332037
O             0.184271     -0.087427     -0.397918
O             0.308415     -0.258893      0.349254
O            -0.061151     -0.243681     -0.356485
O            -0.450550     -0.094676      0.389869
O             0.065695     -0.075453      0.358256
O             0.440464     -0.239625     -0.394956
Fe            0.139077      0.079427     -0.274896
H             0.392190      0.178013     -0.435248
Fe           -0.143077      0.247852      0.284589
Fe           -0.349939      0.072970     -0.475668
H            -0.076288      0.097372     -0.457089
H            -0.400814      0.242691      0.301418
H             0.132653      0.260369      0.492488
H             0.393101      0.084504     -0.289890
O            -0.198745      0.071334      0.398524
O            -0.313842      0.249829     -0.355225
O             0.194238      0.250283     -0.420202
O             0.322768      0.075760      0.335043
O            -0.052719      0.090160     -0.356108
O            -0.456007      0.247442      0.389058
O             0.052211      0.249845      0.355136
O             0.440553      0.097247     -0.395668
Ni            0.145346      0.412608     -0.276546
Fe            0.342668     -0.419626      0.496543
Fe           -0.145840     -0.405603      0.276441
Fe           -0.373426      0.406811     -0.480739
H            -0.084812      0.419399     -0.469567
H            -0.418571     -0.417670      0.315002
H             0.065417     -0.411488      0.460255
H             0.426667      0.423486     -0.296176
O            -0.210303      0.427507      0.394293
O            -0.315981     -0.419183     -0.348974
O             0.181781     -0.430557     -0.387294
O             0.301917      0.427803      0.342774
O            -0.052753      0.423866     -0.366945
O            -0.456641     -0.403368      0.406201
O             0.045858     -0.408846      0.356087
O             0.443664      0.435004     -0.399621
H             0.153838     -0.442506      0.021021
H             0.392071      0.147697      0.331083
H             0.320665      0.337576      0.390698
data_nwchem_pspw

_audit_creation_date   Thu Mar  2 14:30:57 2023
_audit_creation_method    generated by PSPW module of NWChem


_cell_length_a            10.0667
_cell_length_b             9.1552
_cell_length_c             9.2041
_cell_angle_alpha         90.0000
_cell_angle_beta          90.0000
_cell_angle_gamma         90.0000

_symmetry_space_group_name_H-M     P1  

loop_
_atom_site_type_symbol
_atom_site_fract_x
_atom_site_fract_y
_atom_site_fract_z
Fe            0.138613     -0.231043      0.226780
Fe            0.355127     -0.088254     -0.024510
Fe           -0.140485     -0.082515     -0.222546
Fe           -0.364010     -0.256476      0.041536
H            -0.088459     -0.243128      0.037110
H            -0.427011     -0.080609     -0.193468
H             0.083087     -0.060660     -0.045144
H             0.421069     -0.227082      0.208112
O            -0.210346     -0.258326     -0.099385
O            -0.309333     -0.076325      0.150326
O             0.192537     -0.047921      0.107765
O             0.311123     -0.262821     -0.150122
O            -0.049431     -0.244040      0.135908
O            -0.450393     -0.085349     -0.092614
O             0.044950     -0.075135     -0.142047
O             0.447874     -0.256584      0.112104
Fe            0.127169      0.106773      0.226065
Fe            0.348866      0.254413     -0.020863
Fe           -0.133648      0.248634     -0.226530
Fe           -0.361673      0.097029      0.020076
H            -0.102656      0.083431      0.045080
H            -0.418097      0.236514     -0.197574
H             0.089009      0.254733     -0.062284
H             0.406969      0.057274      0.185394
O            -0.200403      0.090568     -0.106812
O            -0.294678      0.238814      0.156049
O             0.180075      0.259369      0.089189
O             0.306298      0.078684     -0.171831
O            -0.064104      0.080574      0.140737
O            -0.451404      0.259580     -0.100415
O             0.067565      0.259870     -0.165633
O             0.430654      0.080832      0.089922
Fe            0.127671      0.414753      0.231051
Fe            0.362453     -0.425846     -0.028596
Fe           -0.144043     -0.424773     -0.229317
Fe           -0.346710      0.413697      0.035055
H            -0.109728      0.430854      0.045698
H            -0.401089     -0.415689     -0.187925
H             0.015970     -0.485784     -0.053294
H             0.410025      0.406126      0.201033
O            -0.189446      0.411397     -0.095343
O            -0.310185     -0.419782      0.168724
O             0.197991     -0.404525      0.095220
O             0.305730      0.414130     -0.160144
O            -0.057845      0.435719      0.142306
O            -0.441965     -0.430844     -0.093837
O             0.053444     -0.434020     -0.131923
O             0.441589      0.419514      0.103351
Fe            0.147919     -0.247850     -0.270694
Fe            0.363818     -0.084414      0.471590
Fe           -0.152172     -0.097336      0.266150
Fe           -0.351099     -0.245977     -0.467748
H            -0.076947     -0.254320     -0.442230
H            -0.409651     -0.091753      0.295553
H             0.101326     -0.076279      0.453553
H             0.423869     -0.225168     -0.296381
O            -0.179472     -0.249246      0.414723
O            -0.300131     -0.094494     -0.342125
O             0.201572     -0.088329     -0.415330
O             0.299634     -0.257234      0.353707
O            -0.040306     -0.240962     -0.343468
O            -0.448741     -0.106912      0.396304
O             0.057316     -0.068130      0.357918
O             0.449164     -0.254969     -0.394576
Fe            0.139982      0.086664     -0.313077
H             0.397424      0.159534     -0.429720
Fe           -0.141482      0.240384      0.286021
Fe           -0.349809      0.075299     -0.477457
H            -0.103694      0.075867     -0.455084
H            -0.391814      0.236209      0.293464
H             0.142749      0.281261      0.497424
H             0.377355      0.084640     -0.251267
O            -0.201142      0.064465      0.399864
O            -0.288359      0.248216     -0.354761
O             0.207827      0.275609     -0.420788
O             0.328283      0.083651      0.341731
O            -0.054154      0.068906     -0.362959
O            -0.432579      0.231883      0.388859
O             0.049794      0.250450      0.353891
O             0.457243      0.088669     -0.391374
Ni            0.149058      0.421028     -0.278970
Fe            0.364227     -0.419799      0.480156
Fe           -0.142825     -0.414805      0.274815
Fe           -0.368401      0.404508     -0.476481
H            -0.097497      0.436274     -0.452702
H            -0.387638     -0.411716      0.309552
H             0.085709     -0.399408      0.442432
H             0.431496      0.427428     -0.287403
O            -0.190399      0.427289      0.421357
O            -0.307560     -0.427638     -0.349422
O             0.194654     -0.417296     -0.393061
O             0.302985      0.416085      0.349839
O            -0.052388      0.437894     -0.351928
O            -0.444543     -0.426399      0.395858
O             0.050203     -0.411303      0.346609
O             0.450236      0.423068     -0.391894
H             0.132858     -0.395510      0.014833
H             0.389220      0.165377      0.349881
H             0.297403      0.354997      0.437992