data_nwchem_pspw

_audit_creation_date   Thu Aug 29 17:02:01 2024
_audit_creation_method    generated by PSPW module of NWChem


_cell_length_a            10.0667
_cell_length_b             9.1552
_cell_length_c             9.2041
_cell_angle_alpha         90.0000
_cell_angle_beta          90.0000
_cell_angle_gamma         90.0000

_symmetry_space_group_name_H-M     P1  

loop_
_atom_site_type_symbol
_atom_site_fract_x
_atom_site_fract_y
_atom_site_fract_z
Fe            0.146735     -0.250000      0.224756
Fe            0.353175     -0.083327     -0.025375
Fe           -0.146825     -0.083327     -0.224625
H            -0.353265     -0.250000      0.025244
H            -0.085221     -0.250000      0.049134
H            -0.414737     -0.083030     -0.201101
H             0.085263     -0.083030     -0.048899
H             0.414779     -0.250000      0.200866
O            -0.196748     -0.250000     -0.095276
O            -0.303195     -0.083277      0.154599
O             0.196805     -0.083277      0.095401
O             0.303252     -0.250000     -0.154724
O            -0.053396     -0.250000      0.148894
O            -0.446594     -0.082953     -0.101355
O             0.053406     -0.082954     -0.148645
O             0.446604     -0.250000      0.101106
Fe            0.146825      0.083327      0.224625
Lu            0.353265      0.250000     -0.025244
Fe           -0.146735      0.250000     -0.224756
Fe           -0.353175      0.083327      0.025375
H            -0.085263      0.083030      0.048899
H            -0.414779      0.250000     -0.200866
H             0.085221      0.250000     -0.049134
H             0.414737      0.083030      0.201101
O            -0.196805      0.083277     -0.095401
O            -0.303252      0.250000      0.154724
O             0.196748      0.250000      0.095276
O             0.303195      0.083277     -0.154599
O            -0.053406      0.082954      0.148645
O            -0.446604      0.250000     -0.101106
O             0.053396      0.250000     -0.148894
O             0.446594      0.082953      0.101355
H             0.146825      0.416673      0.224625
Fe            0.353175     -0.416673     -0.025375
Fe           -0.146825     -0.416673     -0.224625
Fe           -0.353175      0.416673      0.025375
H            -0.085263      0.416970      0.048899
H            -0.414737     -0.416970     -0.201101
H             0.085263     -0.416970     -0.048899
H             0.414737      0.416970      0.201101
O            -0.196805      0.416723     -0.095401
O            -0.303195     -0.416723      0.154599
O             0.196805     -0.416723      0.095401
O             0.303195      0.416723     -0.154599
O            -0.053406      0.417047      0.148645
O            -0.446594     -0.417047     -0.101355
O             0.053406     -0.417047     -0.148645
O             0.446594      0.417046      0.101355
Fe            0.146735     -0.250000     -0.275244
Fe            0.353175     -0.083327      0.474625
Fe           -0.146825     -0.083327      0.275375
Fe           -0.353265     -0.250000     -0.474756
H            -0.085221     -0.250000     -0.450866
H            -0.414737     -0.083030      0.298899
H             0.085263     -0.083030      0.451101
H             0.414779     -0.250000     -0.299134
O            -0.196748     -0.250000      0.404724
O            -0.303195     -0.083277     -0.345401
O             0.196805     -0.083277     -0.404599
O             0.303252     -0.250000      0.345276
O            -0.053396     -0.250000     -0.351106
O            -0.446594     -0.082953      0.398645
O             0.053406     -0.082954      0.351355
O             0.446604     -0.250000     -0.398894
Fe            0.146825      0.083327     -0.275375
Fe            0.353265      0.250000      0.474756
Fe           -0.146735      0.250000      0.275244
Fe           -0.353175      0.083327     -0.474625
H            -0.085263      0.083030     -0.451101
H            -0.414779      0.250000      0.299134
H             0.085221      0.250000      0.450866
H             0.414737      0.083030     -0.298899
O            -0.196805      0.083277      0.404599
O            -0.303252      0.250000     -0.345276
O             0.196748      0.250000     -0.404724
O             0.303195      0.083277      0.345401
O            -0.053406      0.082954     -0.351355
O            -0.446604      0.250000      0.398894
O             0.053396      0.250000      0.351106
O             0.446594      0.082953     -0.398645
Fe            0.146825      0.416673     -0.275375
Lu            0.353175     -0.416673      0.474625
Fe           -0.146825     -0.416673      0.275375
Fe           -0.353175      0.416673     -0.474625
H            -0.085263      0.416970     -0.451101
H            -0.414737     -0.416970      0.298899
H             0.085263     -0.416970      0.451101
H             0.414737      0.416970     -0.298899
O            -0.196805      0.416723      0.404599
O            -0.303195     -0.416723     -0.345401
O             0.196805     -0.416723     -0.404599
O             0.303195      0.416723      0.345401
O            -0.053406      0.417047     -0.351355
O            -0.446594     -0.417047      0.398645
O             0.053406     -0.417047      0.351355
O             0.446594      0.417046     -0.398645
H            -0.323265     -0.300000      0.025244
H            -0.403265     -0.220000      0.005244
H             0.106825      0.456673      0.184625
H             0.196825      0.366673      0.244625
data_nwchem_pspw

_audit_creation_date   Thu Aug 29 17:12:13 2024
_audit_creation_method    generated by PSPW module of NWChem


_cell_length_a            10.0667
_cell_length_b             9.1552
_cell_length_c             9.2041
_cell_angle_alpha         90.0000
_cell_angle_beta          90.0000
_cell_angle_gamma         90.0000

_symmetry_space_group_name_H-M     P1  

loop_
_atom_site_type_symbol
_atom_site_fract_x
_atom_site_fract_y
_atom_site_fract_z
Fe            0.146735     -0.250000      0.224756
Fe            0.353175     -0.083327     -0.025375
Fe           -0.146825     -0.083327     -0.224625
H            -0.353265     -0.250000      0.025244
H            -0.085221     -0.250000      0.049134
H            -0.414737     -0.083030     -0.201101
H             0.085263     -0.083030     -0.048899
H             0.414779     -0.250000      0.200866
O            -0.196748     -0.250000     -0.095276
O            -0.303195     -0.083277      0.154599
O             0.196805     -0.083277      0.095401
O             0.303252     -0.250000     -0.154724
O            -0.053396     -0.250000      0.148894
O            -0.446594     -0.082953     -0.101355
O             0.053406     -0.082954     -0.148645
O             0.446604     -0.250000      0.101106
Fe            0.146825      0.083327      0.224625
Lu            0.353265      0.250000     -0.025244
Fe           -0.146735      0.250000     -0.224756
Fe           -0.353175      0.083327      0.025375
H            -0.085263      0.083030      0.048899
H            -0.414779      0.250000     -0.200866
H             0.085221      0.250000     -0.049134
H             0.414737      0.083030      0.201101
O            -0.196805      0.083277     -0.095401
O            -0.303252      0.250000      0.154724
O             0.196748      0.250000      0.095276
O             0.303195      0.083277     -0.154599
O            -0.053406      0.082954      0.148645
O            -0.446604      0.250000     -0.101106
O             0.053396      0.250000     -0.148894
O             0.446594      0.082953      0.101355
H             0.146825      0.416673      0.224625
Fe            0.353175     -0.416673     -0.025375
Fe           -0.146825     -0.416673     -0.224625
Fe           -0.353175      0.416673      0.025375
H            -0.085263      0.416970      0.048899
H            -0.414737     -0.416970     -0.201101
H             0.085263     -0.416970     -0.048899
H             0.414737      0.416970      0.201101
O            -0.196805      0.416723     -0.095401
O            -0.303195     -0.416723      0.154599
O             0.196805     -0.416723      0.095401
O             0.303195      0.416723     -0.154599
O            -0.053406      0.417047      0.148645
O            -0.446594     -0.417047     -0.101355
O             0.053406     -0.417047     -0.148645
O             0.446594      0.417046      0.101355
Fe            0.146735     -0.250000     -0.275244
Fe            0.353175     -0.083327      0.474625
Fe           -0.146825     -0.083327      0.275375
Fe           -0.353265     -0.250000     -0.474756
H            -0.085221     -0.250000     -0.450866
H            -0.414737     -0.083030      0.298899
H             0.085263     -0.083030      0.451101
H             0.414779     -0.250000     -0.299134
O            -0.196748     -0.250000      0.404724
O            -0.303195     -0.083277     -0.345401
O             0.196805     -0.083277     -0.404599
O             0.303252     -0.250000      0.345276
O            -0.053396     -0.250000     -0.351106
O            -0.446594     -0.082953      0.398645
O             0.053406     -0.082954      0.351355
O             0.446604     -0.250000     -0.398894
Fe            0.146825      0.083327     -0.275375
Fe            0.353265      0.250000      0.474756
Fe           -0.146735      0.250000      0.275244
Fe           -0.353175      0.083327     -0.474625
H            -0.085263      0.083030     -0.451101
H            -0.414779      0.250000      0.299134
H             0.085221      0.250000      0.450866
H             0.414737      0.083030     -0.298899
O            -0.196805      0.083277      0.404599
O            -0.303252      0.250000     -0.345276
O             0.196748      0.250000     -0.404724
O             0.303195      0.083277      0.345401
O            -0.053406      0.082954     -0.351355
O            -0.446604      0.250000      0.398894
O             0.053396      0.250000      0.351106
O             0.446594      0.082953     -0.398645
Fe            0.146825      0.416673     -0.275375
Lu            0.353175     -0.416673      0.474625
Fe           -0.146825     -0.416673      0.275375
Fe           -0.353175      0.416673     -0.474625
H            -0.085263      0.416970     -0.451101
H            -0.414737     -0.416970      0.298899
H             0.085263     -0.416970      0.451101
H             0.414737      0.416970     -0.298899
O            -0.196805      0.416723      0.404599
O            -0.303195     -0.416723     -0.345401
O             0.196805     -0.416723     -0.404599
O             0.303195      0.416723      0.345401
O            -0.053406      0.417047     -0.351355
O            -0.446594     -0.417047      0.398645
O             0.053406     -0.417047      0.351355
O             0.446594      0.417046     -0.398645
H            -0.323265     -0.300000      0.025244
H            -0.403265     -0.220000      0.005244
H             0.106825      0.456673      0.184625
H             0.196825      0.366673      0.244625
data_nwchem_pspw

_audit_creation_date   Thu Aug 29 17:21:10 2024
_audit_creation_method    generated by PSPW module of NWChem


_cell_length_a            10.0667
_cell_length_b             9.1552
_cell_length_c             9.2041
_cell_angle_alpha         90.0000
_cell_angle_beta          90.0000
_cell_angle_gamma         90.0000

_symmetry_space_group_name_H-M     P1  

loop_
_atom_site_type_symbol
_atom_site_fract_x
_atom_site_fract_y
_atom_site_fract_z
Fe            0.146735     -0.250000      0.224756
Fe            0.353175     -0.083327     -0.025375
Fe           -0.146825     -0.083327     -0.224625
H            -0.353265     -0.250000      0.025244
H            -0.085221     -0.250000      0.049134
H            -0.414737     -0.083030     -0.201101
H             0.085263     -0.083030     -0.048899
H             0.414779     -0.250000      0.200866
O            -0.196748     -0.250000     -0.095276
O            -0.303195     -0.083277      0.154599
O             0.196805     -0.083277      0.095401
O             0.303252     -0.250000     -0.154724
O            -0.053396     -0.250000      0.148894
O            -0.446594     -0.082953     -0.101355
O             0.053406     -0.082954     -0.148645
O             0.446604     -0.250000      0.101106
Fe            0.146825      0.083327      0.224625
Lu            0.353265      0.250000     -0.025244
Fe           -0.146735      0.250000     -0.224756
Fe           -0.353175      0.083327      0.025375
H            -0.085263      0.083030      0.048899
H            -0.414779      0.250000     -0.200866
H             0.085221      0.250000     -0.049134
H             0.414737      0.083030      0.201101
O            -0.196805      0.083277     -0.095401
O            -0.303252      0.250000      0.154724
O             0.196748      0.250000      0.095276
O             0.303195      0.083277     -0.154599
O            -0.053406      0.082954      0.148645
O            -0.446604      0.250000     -0.101106
O             0.053396      0.250000     -0.148894
O             0.446594      0.082953      0.101355
H             0.146825      0.416673      0.224625
Fe            0.353175     -0.416673     -0.025375
Fe           -0.146825     -0.416673     -0.224625
Fe           -0.353175      0.416673      0.025375
H            -0.085263      0.416970      0.048899
H            -0.414737     -0.416970     -0.201101
H             0.085263     -0.416970     -0.048899
H             0.414737      0.416970      0.201101
O            -0.196805      0.416723     -0.095401
O            -0.303195     -0.416723      0.154599
O             0.196805     -0.416723      0.095401
O             0.303195      0.416723     -0.154599
O            -0.053406      0.417047      0.148645
O            -0.446594     -0.417047     -0.101355
O             0.053406     -0.417047     -0.148645
O             0.446594      0.417046      0.101355
Fe            0.146735     -0.250000     -0.275244
Fe            0.353175     -0.083327      0.474625
Fe           -0.146825     -0.083327      0.275375
Fe           -0.353265     -0.250000     -0.474756
H            -0.085221     -0.250000     -0.450866
H            -0.414737     -0.083030      0.298899
H             0.085263     -0.083030      0.451101
H             0.414779     -0.250000     -0.299134
O            -0.196748     -0.250000      0.404724
O            -0.303195     -0.083277     -0.345401
O             0.196805     -0.083277     -0.404599
O             0.303252     -0.250000      0.345276
O            -0.053396     -0.250000     -0.351106
O            -0.446594     -0.082953      0.398645
O             0.053406     -0.082954      0.351355
O             0.446604     -0.250000     -0.398894
Fe            0.146825      0.083327     -0.275375
Fe            0.353265      0.250000      0.474756
Fe           -0.146735      0.250000      0.275244
Fe           -0.353175      0.083327     -0.474625
H            -0.085263      0.083030     -0.451101
H            -0.414779      0.250000      0.299134
H             0.085221      0.250000      0.450866
H             0.414737      0.083030     -0.298899
O            -0.196805      0.083277      0.404599
O            -0.303252      0.250000     -0.345276
O             0.196748      0.250000     -0.404724
O             0.303195      0.083277      0.345401
O            -0.053406      0.082954     -0.351355
O            -0.446604      0.250000      0.398894
O             0.053396      0.250000      0.351106
O             0.446594      0.082953     -0.398645
Fe            0.146825      0.416673     -0.275375
Lu            0.353175     -0.416673      0.474625
Fe           -0.146825     -0.416673      0.275375
Fe           -0.353175      0.416673     -0.474625
H            -0.085263      0.416970     -0.451101
H            -0.414737     -0.416970      0.298899
H             0.085263     -0.416970      0.451101
H             0.414737      0.416970     -0.298899
O            -0.196805      0.416723      0.404599
O            -0.303195     -0.416723     -0.345401
O             0.196805     -0.416723     -0.404599
O             0.303195      0.416723      0.345401
O            -0.053406      0.417047     -0.351355
O            -0.446594     -0.417047      0.398645
O             0.053406     -0.417047      0.351355
O             0.446594      0.417046     -0.398645
H            -0.323265     -0.300000      0.025244
H            -0.403265     -0.220000      0.005244
H             0.106825      0.456673      0.184625
H             0.196825      0.366673      0.244625
data_nwchem_pspw

_audit_creation_date   Thu Aug 29 19:10:44 2024
_audit_creation_method    generated by PSPW module of NWChem


_cell_length_a            10.0667
_cell_length_b             9.1552
_cell_length_c             9.2041
_cell_angle_alpha         90.0000
_cell_angle_beta          90.0000
_cell_angle_gamma         90.0000

_symmetry_space_group_name_H-M     P1  

loop_
_atom_site_type_symbol
_atom_site_fract_x
_atom_site_fract_y
_atom_site_fract_z
Fe            0.146735     -0.250000      0.224756
Fe            0.353175     -0.083327     -0.025375
Fe           -0.146825     -0.083327     -0.224625
H            -0.353265     -0.250000      0.025244
H            -0.085221     -0.250000      0.049134
H            -0.414737     -0.083030     -0.201101
H             0.085263     -0.083030     -0.048899
H             0.414779     -0.250000      0.200866
O            -0.196748     -0.250000     -0.095276
O            -0.303195     -0.083277      0.154599
O             0.196805     -0.083277      0.095401
O             0.303252     -0.250000     -0.154724
O            -0.053396     -0.250000      0.148894
O            -0.446594     -0.082953     -0.101355
O             0.053406     -0.082954     -0.148645
O             0.446604     -0.250000      0.101106
Fe            0.146825      0.083327      0.224625
Lu            0.353265      0.250000     -0.025244
Fe           -0.146735      0.250000     -0.224756
Fe           -0.353175      0.083327      0.025375
H            -0.085263      0.083030      0.048899
H            -0.414779      0.250000     -0.200866
H             0.085221      0.250000     -0.049134
H             0.414737      0.083030      0.201101
O            -0.196805      0.083277     -0.095401
O            -0.303252      0.250000      0.154724
O             0.196748      0.250000      0.095276
O             0.303195      0.083277     -0.154599
O            -0.053406      0.082954      0.148645
O            -0.446604      0.250000     -0.101106
O             0.053396      0.250000     -0.148894
O             0.446594      0.082953      0.101355
H             0.146825      0.416673      0.224625
Fe            0.353175     -0.416673     -0.025375
Fe           -0.146825     -0.416673     -0.224625
Fe           -0.353175      0.416673      0.025375
H            -0.085263      0.416970      0.048899
H            -0.414737     -0.416970     -0.201101
H             0.085263     -0.416970     -0.048899
H             0.414737      0.416970      0.201101
O            -0.196805      0.416723     -0.095401
O            -0.303195     -0.416723      0.154599
O             0.196805     -0.416723      0.095401
O             0.303195      0.416723     -0.154599
O            -0.053406      0.417047      0.148645
O            -0.446594     -0.417047     -0.101355
O             0.053406     -0.417047     -0.148645
O             0.446594      0.417046      0.101355
Fe            0.146735     -0.250000     -0.275244
Fe            0.353175     -0.083327      0.474625
Fe           -0.146825     -0.083327      0.275375
Fe           -0.353265     -0.250000     -0.474756
H            -0.085221     -0.250000     -0.450866
H            -0.414737     -0.083030      0.298899
H             0.085263     -0.083030      0.451101
H             0.414779     -0.250000     -0.299134
O            -0.196748     -0.250000      0.404724
O            -0.303195     -0.083277     -0.345401
O             0.196805     -0.083277     -0.404599
O             0.303252     -0.250000      0.345276
O            -0.053396     -0.250000     -0.351106
O            -0.446594     -0.082953      0.398645
O             0.053406     -0.082954      0.351355
O             0.446604     -0.250000     -0.398894
Fe            0.146825      0.083327     -0.275375
Fe            0.353265      0.250000      0.474756
Fe           -0.146735      0.250000      0.275244
Fe           -0.353175      0.083327     -0.474625
H            -0.085263      0.083030     -0.451101
H            -0.414779      0.250000      0.299134
H             0.085221      0.250000      0.450866
H             0.414737      0.083030     -0.298899
O            -0.196805      0.083277      0.404599
O            -0.303252      0.250000     -0.345276
O             0.196748      0.250000     -0.404724
O             0.303195      0.083277      0.345401
O            -0.053406      0.082954     -0.351355
O            -0.446604      0.250000      0.398894
O             0.053396      0.250000      0.351106
O             0.446594      0.082953     -0.398645
Fe            0.146825      0.416673     -0.275375
Lu            0.353175     -0.416673      0.474625
Fe           -0.146825     -0.416673      0.275375
Fe           -0.353175      0.416673     -0.474625
H            -0.085263      0.416970     -0.451101
H            -0.414737     -0.416970      0.298899
H             0.085263     -0.416970      0.451101
H             0.414737      0.416970     -0.298899
O            -0.196805      0.416723      0.404599
O            -0.303195     -0.416723     -0.345401
O             0.196805     -0.416723     -0.404599
O             0.303195      0.416723      0.345401
O            -0.053406      0.417047     -0.351355
O            -0.446594     -0.417047      0.398645
O             0.053406     -0.417047      0.351355
O             0.446594      0.417046     -0.398645
H            -0.323265     -0.300000      0.025244
H            -0.403265     -0.220000      0.005244
H             0.106825      0.456673      0.184625
H             0.196825      0.366673      0.244625
data_nwchem_pspw

_audit_creation_date   Thu Aug 29 21:54:37 2024
_audit_creation_method    generated by PSPW module of NWChem


_cell_length_a            10.0667
_cell_length_b             9.1552
_cell_length_c             9.2041
_cell_angle_alpha         90.0000
_cell_angle_beta          90.0000
_cell_angle_gamma         90.0000

_symmetry_space_group_name_H-M     P1  

loop_
_atom_site_type_symbol
_atom_site_fract_x
_atom_site_fract_y
_atom_site_fract_z
Fe            0.146735     -0.250000      0.224756
Fe            0.353175     -0.083327     -0.025375
Fe           -0.146825     -0.083327     -0.224625
H            -0.353265     -0.250000      0.025244
H            -0.085221     -0.250000      0.049134
H            -0.414737     -0.083030     -0.201101
H             0.085263     -0.083030     -0.048899
H             0.414779     -0.250000      0.200866
O            -0.196748     -0.250000     -0.095276
O            -0.303195     -0.083277      0.154599
O             0.196805     -0.083277      0.095401
O             0.303252     -0.250000     -0.154724
O            -0.053396     -0.250000      0.148894
O            -0.446594     -0.082953     -0.101355
O             0.053406     -0.082954     -0.148645
O             0.446604     -0.250000      0.101106
Fe            0.146825      0.083327      0.224625
Lu            0.353265      0.250000     -0.025244
Fe           -0.146735      0.250000     -0.224756
Fe           -0.353175      0.083327      0.025375
H            -0.085263      0.083030      0.048899
H            -0.414779      0.250000     -0.200866
H             0.085221      0.250000     -0.049134
H             0.414737      0.083030      0.201101
O            -0.196805      0.083277     -0.095401
O            -0.303252      0.250000      0.154724
O             0.196748      0.250000      0.095276
O             0.303195      0.083277     -0.154599
O            -0.053406      0.082954      0.148645
O            -0.446604      0.250000     -0.101106
O             0.053396      0.250000     -0.148894
O             0.446594      0.082953      0.101355
H             0.146825      0.416673      0.224625
Fe            0.353175     -0.416673     -0.025375
Fe           -0.146825     -0.416673     -0.224625
Fe           -0.353175      0.416673      0.025375
H            -0.085263      0.416970      0.048899
H            -0.414737     -0.416970     -0.201101
H             0.085263     -0.416970     -0.048899
H             0.414737      0.416970      0.201101
O            -0.196805      0.416723     -0.095401
O            -0.303195     -0.416723      0.154599
O             0.196805     -0.416723      0.095401
O             0.303195      0.416723     -0.154599
O            -0.053406      0.417047      0.148645
O            -0.446594     -0.417047     -0.101355
O             0.053406     -0.417047     -0.148645
O             0.446594      0.417046      0.101355
Fe            0.146735     -0.250000     -0.275244
Fe            0.353175     -0.083327      0.474625
Fe           -0.146825     -0.083327      0.275375
Fe           -0.353265     -0.250000     -0.474756
H            -0.085221     -0.250000     -0.450866
H            -0.414737     -0.083030      0.298899
H             0.085263     -0.083030      0.451101
H             0.414779     -0.250000     -0.299134
O            -0.196748     -0.250000      0.404724
O            -0.303195     -0.083277     -0.345401
O             0.196805     -0.083277     -0.404599
O             0.303252     -0.250000      0.345276
O            -0.053396     -0.250000     -0.351106
O            -0.446594     -0.082953      0.398645
O             0.053406     -0.082954      0.351355
O             0.446604     -0.250000     -0.398894
Fe            0.146825      0.083327     -0.275375
Fe            0.353265      0.250000      0.474756
Fe           -0.146735      0.250000      0.275244
Fe           -0.353175      0.083327     -0.474625
H            -0.085263      0.083030     -0.451101
H            -0.414779      0.250000      0.299134
H             0.085221      0.250000      0.450866
H             0.414737      0.083030     -0.298899
O            -0.196805      0.083277      0.404599
O            -0.303252      0.250000     -0.345276
O             0.196748      0.250000     -0.404724
O             0.303195      0.083277      0.345401
O            -0.053406      0.082954     -0.351355
O            -0.446604      0.250000      0.398894
O             0.053396      0.250000      0.351106
O             0.446594      0.082953     -0.398645
Fe            0.146825      0.416673     -0.275375
Lu            0.353175     -0.416673      0.474625
Fe           -0.146825     -0.416673      0.275375
Fe           -0.353175      0.416673     -0.474625
H            -0.085263      0.416970     -0.451101
H            -0.414737     -0.416970      0.298899
H             0.085263     -0.416970      0.451101
H             0.414737      0.416970     -0.298899
O            -0.196805      0.416723      0.404599
O            -0.303195     -0.416723     -0.345401
O             0.196805     -0.416723     -0.404599
O             0.303195      0.416723      0.345401
O            -0.053406      0.417047     -0.351355
O            -0.446594     -0.417047      0.398645
O             0.053406     -0.417047      0.351355
O             0.446594      0.417046     -0.398645
H            -0.323265     -0.300000      0.025244
H            -0.403265     -0.220000      0.005244
H             0.106825      0.456673      0.184625
H             0.196825      0.366673      0.244625
data_nwchem_pspw

_audit_creation_date   Fri Aug 30 03:02:47 2024
_audit_creation_method    generated by PSPW module of NWChem


_cell_length_a            10.0667
_cell_length_b             9.1552
_cell_length_c             9.2041
_cell_angle_alpha         90.0000
_cell_angle_beta          90.0000
_cell_angle_gamma         90.0000

_symmetry_space_group_name_H-M     P1  

loop_
_atom_site_type_symbol
_atom_site_fract_x
_atom_site_fract_y
_atom_site_fract_z
Fe            0.146735     -0.250000      0.224756
Fe            0.353175     -0.083327     -0.025375
Fe           -0.146825     -0.083327     -0.224625
H            -0.353265     -0.250000      0.025244
H            -0.085221     -0.250000      0.049134
H            -0.414737     -0.083030     -0.201101
H             0.085263     -0.083030     -0.048899
H             0.414779     -0.250000      0.200866
O            -0.196748     -0.250000     -0.095276
O            -0.303195     -0.083277      0.154599
O             0.196805     -0.083277      0.095401
O             0.303252     -0.250000     -0.154724
O            -0.053396     -0.250000      0.148894
O            -0.446594     -0.082953     -0.101355
O             0.053406     -0.082954     -0.148645
O             0.446604     -0.250000      0.101106
Fe            0.146825      0.083327      0.224625
Lu            0.353265      0.250000     -0.025244
Fe           -0.146735      0.250000     -0.224756
Fe           -0.353175      0.083327      0.025375
H            -0.085263      0.083030      0.048899
H            -0.414779      0.250000     -0.200866
H             0.085221      0.250000     -0.049134
H             0.414737      0.083030      0.201101
O            -0.196805      0.083277     -0.095401
O            -0.303252      0.250000      0.154724
O             0.196748      0.250000      0.095276
O             0.303195      0.083277     -0.154599
O            -0.053406      0.082954      0.148645
O            -0.446604      0.250000     -0.101106
O             0.053396      0.250000     -0.148894
O             0.446594      0.082953      0.101355
H             0.146825      0.416673      0.224625
Fe            0.353175     -0.416673     -0.025375
Fe           -0.146825     -0.416673     -0.224625
Fe           -0.353175      0.416673      0.025375
H            -0.085263      0.416970      0.048899
H            -0.414737     -0.416970     -0.201101
H             0.085263     -0.416970     -0.048899
H             0.414737      0.416970      0.201101
O            -0.196805      0.416723     -0.095401
O            -0.303195     -0.416723      0.154599
O             0.196805     -0.416723      0.095401
O             0.303195      0.416723     -0.154599
O            -0.053406      0.417047      0.148645
O            -0.446594     -0.417047     -0.101355
O             0.053406     -0.417047     -0.148645
O             0.446594      0.417046      0.101355
Fe            0.146735     -0.250000     -0.275244
Fe            0.353175     -0.083327      0.474625
Fe           -0.146825     -0.083327      0.275375
Fe           -0.353265     -0.250000     -0.474756
H            -0.085221     -0.250000     -0.450866
H            -0.414737     -0.083030      0.298899
H             0.085263     -0.083030      0.451101
H             0.414779     -0.250000     -0.299134
O            -0.196748     -0.250000      0.404724
O            -0.303195     -0.083277     -0.345401
O             0.196805     -0.083277     -0.404599
O             0.303252     -0.250000      0.345276
O            -0.053396     -0.250000     -0.351106
O            -0.446594     -0.082953      0.398645
O             0.053406     -0.082954      0.351355
O             0.446604     -0.250000     -0.398894
Fe            0.146825      0.083327     -0.275375
Fe            0.353265      0.250000      0.474756
Fe           -0.146735      0.250000      0.275244
Fe           -0.353175      0.083327     -0.474625
H            -0.085263      0.083030     -0.451101
H            -0.414779      0.250000      0.299134
H             0.085221      0.250000      0.450866
H             0.414737      0.083030     -0.298899
O            -0.196805      0.083277      0.404599
O            -0.303252      0.250000     -0.345276
O             0.196748      0.250000     -0.404724
O             0.303195      0.083277      0.345401
O            -0.053406      0.082954     -0.351355
O            -0.446604      0.250000      0.398894
O             0.053396      0.250000      0.351106
O             0.446594      0.082953     -0.398645
Fe            0.146825      0.416673     -0.275375
Lu            0.353175     -0.416673      0.474625
Fe           -0.146825     -0.416673      0.275375
Fe           -0.353175      0.416673     -0.474625
H            -0.085263      0.416970     -0.451101
H            -0.414737     -0.416970      0.298899
H             0.085263     -0.416970      0.451101
H             0.414737      0.416970     -0.298899
O            -0.196805      0.416723      0.404599
O            -0.303195     -0.416723     -0.345401
O             0.196805     -0.416723     -0.404599
O             0.303195      0.416723      0.345401
O            -0.053406      0.417047     -0.351355
O            -0.446594     -0.417047      0.398645
O             0.053406     -0.417047      0.351355
O             0.446594      0.417046     -0.398645
H            -0.323265     -0.300000      0.025244
H            -0.403265     -0.220000      0.005244
H             0.106825      0.456673      0.184625
H             0.196825      0.366673      0.244625
data_nwchem_pspw

_audit_creation_date   Fri Aug 30 05:28:36 2024
_audit_creation_method    generated by PSPW module of NWChem


_cell_length_a            10.0667
_cell_length_b             9.1552
_cell_length_c             9.2041
_cell_angle_alpha         90.0000
_cell_angle_beta          90.0000
_cell_angle_gamma         90.0000

_symmetry_space_group_name_H-M     P1  

loop_
_atom_site_type_symbol
_atom_site_fract_x
_atom_site_fract_y
_atom_site_fract_z
Fe            0.146735     -0.250000      0.224756
Fe            0.353175     -0.083327     -0.025375
Fe           -0.146825     -0.083327     -0.224625
H            -0.353265     -0.250000      0.025244
H            -0.085221     -0.250000      0.049134
H            -0.414737     -0.083030     -0.201101
H             0.085263     -0.083030     -0.048899
H             0.414779     -0.250000      0.200866
O            -0.196748     -0.250000     -0.095276
O            -0.303195     -0.083277      0.154599
O             0.196805     -0.083277      0.095401
O             0.303252     -0.250000     -0.154724
O            -0.053396     -0.250000      0.148894
O            -0.446594     -0.082953     -0.101355
O             0.053406     -0.082954     -0.148645
O             0.446604     -0.250000      0.101106
Fe            0.146825      0.083327      0.224625
Lu            0.353265      0.250000     -0.025244
Fe           -0.146735      0.250000     -0.224756
Fe           -0.353175      0.083327      0.025375
H            -0.085263      0.083030      0.048899
H            -0.414779      0.250000     -0.200866
H             0.085221      0.250000     -0.049134
H             0.414737      0.083030      0.201101
O            -0.196805      0.083277     -0.095401
O            -0.303252      0.250000      0.154724
O             0.196748      0.250000      0.095276
O             0.303195      0.083277     -0.154599
O            -0.053406      0.082954      0.148645
O            -0.446604      0.250000     -0.101106
O             0.053396      0.250000     -0.148894
O             0.446594      0.082953      0.101355
H             0.146825      0.416673      0.224625
Fe            0.353175     -0.416673     -0.025375
Fe           -0.146825     -0.416673     -0.224625
Fe           -0.353175      0.416673      0.025375
H            -0.085263      0.416970      0.048899
H            -0.414737     -0.416970     -0.201101
H             0.085263     -0.416970     -0.048899
H             0.414737      0.416970      0.201101
O            -0.196805      0.416723     -0.095401
O            -0.303195     -0.416723      0.154599
O             0.196805     -0.416723      0.095401
O             0.303195      0.416723     -0.154599
O            -0.053406      0.417047      0.148645
O            -0.446594     -0.417047     -0.101355
O             0.053406     -0.417047     -0.148645
O             0.446594      0.417046      0.101355
Fe            0.146735     -0.250000     -0.275244
Fe            0.353175     -0.083327      0.474625
Fe           -0.146825     -0.083327      0.275375
Fe           -0.353265     -0.250000     -0.474756
H            -0.085221     -0.250000     -0.450866
H            -0.414737     -0.083030      0.298899
H             0.085263     -0.083030      0.451101
H             0.414779     -0.250000     -0.299134
O            -0.196748     -0.250000      0.404724
O            -0.303195     -0.083277     -0.345401
O             0.196805     -0.083277     -0.404599
O             0.303252     -0.250000      0.345276
O            -0.053396     -0.250000     -0.351106
O            -0.446594     -0.082953      0.398645
O             0.053406     -0.082954      0.351355
O             0.446604     -0.250000     -0.398894
Fe            0.146825      0.083327     -0.275375
Fe            0.353265      0.250000      0.474756
Fe           -0.146735      0.250000      0.275244
Fe           -0.353175      0.083327     -0.474625
H            -0.085263      0.083030     -0.451101
H            -0.414779      0.250000      0.299134
H             0.085221      0.250000      0.450866
H             0.414737      0.083030     -0.298899
O            -0.196805      0.083277      0.404599
O            -0.303252      0.250000     -0.345276
O             0.196748      0.250000     -0.404724
O             0.303195      0.083277      0.345401
O            -0.053406      0.082954     -0.351355
O            -0.446604      0.250000      0.398894
O             0.053396      0.250000      0.351106
O             0.446594      0.082953     -0.398645
Fe            0.146825      0.416673     -0.275375
Lu            0.353175     -0.416673      0.474625
Fe           -0.146825     -0.416673      0.275375
Fe           -0.353175      0.416673     -0.474625
H            -0.085263      0.416970     -0.451101
H            -0.414737     -0.416970      0.298899
H             0.085263     -0.416970      0.451101
H             0.414737      0.416970     -0.298899
O            -0.196805      0.416723      0.404599
O            -0.303195     -0.416723     -0.345401
O             0.196805     -0.416723     -0.404599
O             0.303195      0.416723      0.345401
O            -0.053406      0.417047     -0.351355
O            -0.446594     -0.417047      0.398645
O             0.053406     -0.417047      0.351355
O             0.446594      0.417046     -0.398645
H            -0.323265     -0.300000      0.025244
H            -0.403265     -0.220000      0.005244
H             0.106825      0.456673      0.184625
H             0.196825      0.366673      0.244625
data_nwchem_pspw

_audit_creation_date   Fri Aug 30 10:04:49 2024
_audit_creation_method    generated by PSPW module of NWChem


_cell_length_a            10.0667
_cell_length_b             9.1552
_cell_length_c             9.2041
_cell_angle_alpha         90.0000
_cell_angle_beta          90.0000
_cell_angle_gamma         90.0000

_symmetry_space_group_name_H-M     P1  

loop_
_atom_site_type_symbol
_atom_site_fract_x
_atom_site_fract_y
_atom_site_fract_z
Fe            0.159252     -0.241463      0.208166
Fe            0.358373     -0.082690     -0.019813
Fe           -0.142515     -0.084496     -0.225980
H            -0.291069     -0.168496      0.075640
H            -0.091686     -0.233282      0.032302
H            -0.419565     -0.094512     -0.229397
H             0.089687     -0.063817     -0.047385
H             0.412079     -0.213976      0.200633
O            -0.197587     -0.242512     -0.089897
O            -0.306417     -0.073775      0.144466
O             0.195949     -0.070495      0.091144
O             0.307368     -0.242603     -0.158968
O            -0.049367     -0.223628      0.133392
O            -0.434132     -0.110162     -0.117268
O             0.050585     -0.068830     -0.146675
O             0.456187     -0.225633      0.109396
Fe            0.133827      0.084049      0.241535
Lu            0.332057      0.251946     -0.019300
Fe           -0.148119      0.245851     -0.223268
Fe           -0.349731      0.101988      0.028912
H            -0.081322      0.091280      0.054436
H            -0.413945      0.252653     -0.199959
H             0.068783      0.231817     -0.037713
H             0.421161      0.071740      0.209353
O            -0.199867      0.082935     -0.093390
O            -0.296235      0.249060      0.161426
O             0.165384      0.253680      0.121164
O             0.311965      0.075963     -0.158060
O            -0.056233      0.088988      0.154423
O            -0.453614      0.250520     -0.103225
O             0.053912      0.239658     -0.143233
O             0.452085      0.083769      0.108907
H             0.104078      0.496641      0.300026
Fe            0.365959     -0.400638     -0.019947
Fe           -0.141316     -0.403995     -0.212876
Fe           -0.356039      0.414982      0.023901
H            -0.102120      0.391079      0.077647
H            -0.418170     -0.434424     -0.193513
H             0.099514     -0.400464     -0.051162
H             0.417539      0.423934      0.204148
O            -0.207938      0.412788     -0.105776
O            -0.292371     -0.434861      0.154044
O             0.207157     -0.383286      0.085190
O             0.299892      0.433193     -0.150221
O            -0.047156      0.410490      0.157565
O            -0.449822     -0.415234     -0.094661
O             0.054077     -0.413398     -0.143660
O             0.449115      0.428010      0.105247
Fe            0.143982     -0.240511     -0.260706
Fe            0.356990     -0.077185      0.484587
Fe           -0.141431     -0.094430      0.267635
Fe           -0.347643     -0.263899     -0.480208
H            -0.069095     -0.242761     -0.451732
H            -0.434979     -0.102757      0.298634
H             0.103039     -0.083766      0.447345
H             0.431627     -0.221901     -0.304213
O            -0.197980     -0.256857      0.395024
O            -0.291412     -0.092353     -0.352500
O             0.202779     -0.089592     -0.405874
O             0.310277     -0.220977      0.346121
O            -0.041522     -0.244182     -0.350127
O            -0.455268     -0.081849      0.403573
O             0.064879     -0.082210      0.348987
O             0.457895     -0.259509     -0.397577
Fe            0.146803      0.071524     -0.281663
Fe            0.355496      0.242037      0.489112
Fe           -0.143659      0.231673      0.284138
Fe           -0.355676      0.084521     -0.471970
H            -0.082361      0.077483     -0.453971
H            -0.419691      0.247264      0.303008
H             0.090632      0.232123      0.467570
H             0.398466      0.084741     -0.281347
O            -0.202151      0.066130      0.396434
O            -0.306431      0.248893     -0.345854
O             0.189389      0.233637     -0.413767
O             0.304103      0.073924      0.341302
O            -0.055954      0.092448     -0.352676
O            -0.449616      0.250106      0.404040
O             0.047101      0.222483      0.369442
O             0.440532      0.078801     -0.381127
Fe            0.141230      0.406054     -0.277456
Lu            0.354607     -0.417720      0.441674
Fe           -0.135437     -0.414880      0.286673
Fe           -0.341457      0.414615     -0.470273
H            -0.061847      0.404676     -0.437508
H            -0.387054     -0.434265      0.299007
H             0.105309     -0.403052     -0.497251
H             0.421384      0.428663     -0.292718
O            -0.200444      0.420499      0.400004
O            -0.297559     -0.417026     -0.334835
O             0.175607     -0.414442     -0.404755
O             0.288725      0.391792      0.335540
O            -0.054795      0.414479     -0.334707
O            -0.438413     -0.432820      0.389745
O             0.058475     -0.407868      0.347907
O             0.442769      0.417911     -0.395356
H            -0.308538     -0.366371      0.089967
H            -0.414801     -0.226607     -0.104012
H             0.041219      0.344031      0.134619
H             0.213875      0.368045      0.266444
data_nwchem_pspw

_audit_creation_date   Fri Aug 30 16:19:42 2024
_audit_creation_method    generated by PSPW module of NWChem


_cell_length_a            10.0667
_cell_length_b             9.1552
_cell_length_c             9.2041
_cell_angle_alpha         90.0000
_cell_angle_beta          90.0000
_cell_angle_gamma         90.0000

_symmetry_space_group_name_H-M     P1  

loop_
_atom_site_type_symbol
_atom_site_fract_x
_atom_site_fract_y
_atom_site_fract_z
Fe            0.148291     -0.248080      0.216167
Fe            0.349839     -0.079890     -0.010422
Fe           -0.153277     -0.091498     -0.227578
H            -0.369855     -0.174165      0.127313
H            -0.079651     -0.270278      0.048107
H            -0.410902     -0.074380     -0.227088
H             0.084086     -0.072333     -0.040410
H             0.436247     -0.244902      0.208229
O            -0.185768     -0.250495     -0.101967
O            -0.295936     -0.099345      0.124509
O             0.189613     -0.048953      0.100614
O             0.317965     -0.245346     -0.155781
O            -0.047951     -0.242088      0.140002
O            -0.456679     -0.090533     -0.120563
O             0.046698     -0.091848     -0.137125
O             0.458340     -0.235031      0.105128
Fe            0.138185      0.093980      0.252969
Lu            0.355222      0.254687     -0.026058
Fe           -0.145089      0.252945     -0.231852
Fe           -0.346608      0.079444      0.014363
H            -0.083135      0.076200      0.054509
H            -0.404473      0.241570     -0.217441
H             0.061567      0.218212     -0.056083
H             0.397381      0.064730      0.207799
O            -0.195105      0.088557     -0.112698
O            -0.303296      0.255661      0.144375
O             0.184595      0.256761      0.106469
O             0.302676      0.071563     -0.156005
O            -0.071462      0.079312      0.157569
O            -0.429151      0.227248     -0.113625
O             0.050593      0.243747     -0.155744
O             0.447100      0.076435      0.117043
H             0.061713      0.478855      0.335683
Fe            0.363328     -0.407731     -0.028198
Fe           -0.149743     -0.413278     -0.217869
Fe           -0.363635      0.418733      0.014997
H            -0.093747      0.433642      0.039537
H            -0.428550     -0.415346     -0.217814
H             0.087510     -0.434618     -0.035252
H             0.418160      0.434931      0.205250
O            -0.198894      0.411362     -0.090029
O            -0.296367     -0.408343      0.133593
O             0.214175     -0.397232      0.091496
O             0.283373      0.434068     -0.158328
O            -0.037729      0.399890      0.119199
O            -0.450130     -0.452676     -0.123521
O             0.060522     -0.425877     -0.135550
O             0.456989      0.439450      0.110166
Fe            0.150345     -0.254189     -0.254377
Fe            0.357762     -0.090362      0.490401
Fe           -0.143391     -0.089604      0.287146
Fe           -0.350686     -0.253441     -0.473554
H            -0.051435     -0.260755     -0.449559
H            -0.447183     -0.070865      0.296950
H             0.085260     -0.114128      0.445592
H             0.430429     -0.243715     -0.285742
O            -0.213083     -0.262079      0.389969
O            -0.317405     -0.091868     -0.339161
O             0.196217     -0.092013     -0.396620
O             0.289600     -0.236496      0.348037
O            -0.044192     -0.253286     -0.347525
O            -0.448717     -0.073477      0.398664
O             0.044164     -0.099365      0.352864
O             0.459745     -0.250669     -0.389577
Fe            0.134296      0.073341     -0.280544
Fe            0.356583      0.247559      0.490407
Fe           -0.155706      0.261830      0.271605
Fe           -0.349391      0.081180     -0.485550
H            -0.091002      0.103802     -0.443888
H            -0.412029      0.262827      0.309839
H             0.052488      0.245763      0.461434
H             0.407690      0.093868     -0.287254
O            -0.193441      0.073331      0.397875
O            -0.302452      0.254703     -0.362706
O             0.199137      0.249346     -0.397444
O             0.299059      0.075555      0.359093
O            -0.059797      0.060898     -0.356172
O            -0.455350      0.249920      0.400955
O             0.042542      0.252324      0.358971
O             0.449879      0.087612     -0.383761
Fe            0.134858      0.418344     -0.266357
Lu            0.354178     -0.414517      0.466128
Fe           -0.127627     -0.420679      0.267914
Fe           -0.347099      0.419679     -0.477423
H            -0.083327      0.434883     -0.454281
H            -0.397221     -0.405228      0.293223
H             0.101875     -0.419366      0.497293
H             0.417822      0.421356     -0.291399
O            -0.199903      0.420837      0.405045
O            -0.292033     -0.418217     -0.352535
O             0.168185     -0.414845     -0.408326
O             0.293896      0.410394      0.340674
O            -0.047201      0.414486     -0.360531
O            -0.439533     -0.421948      0.386605
O             0.041414     -0.425499      0.354830
O             0.450853      0.418283     -0.389421
H            -0.277008     -0.319269      0.076773
H            -0.420102     -0.178209     -0.100551
H             0.107822      0.315642      0.149168
H             0.250571      0.396812      0.241407
data_nwchem_pspw

_audit_creation_date   Fri Aug 30 22:36:53 2024
_audit_creation_method    generated by PSPW module of NWChem


_cell_length_a            10.0667
_cell_length_b             9.1552
_cell_length_c             9.2041
_cell_angle_alpha         90.0000
_cell_angle_beta          90.0000
_cell_angle_gamma         90.0000

_symmetry_space_group_name_H-M     P1  

loop_
_atom_site_type_symbol
_atom_site_fract_x
_atom_site_fract_y
_atom_site_fract_z
Fe            0.159202     -0.259201      0.211817
Fe            0.338142     -0.078863     -0.011029
Fe           -0.151895     -0.092403     -0.206403
H            -0.399141     -0.138076      0.125550
H            -0.086627     -0.261874      0.044884
H            -0.416203     -0.070747     -0.214188
H             0.094504     -0.111976     -0.052532
H             0.394179     -0.228569      0.193435
O            -0.198746     -0.250976     -0.081639
O            -0.338530     -0.068799      0.179357
O             0.185264     -0.076387      0.106691
O             0.298996     -0.245325     -0.150220
O            -0.046789     -0.261084      0.146690
O            -0.438800     -0.089267     -0.116079
O             0.046517     -0.078754     -0.135101
O             0.437247     -0.232423      0.100140
Fe            0.131083      0.083840      0.255411
Lu            0.344892      0.250485     -0.028721
Fe           -0.141223      0.250963     -0.230124
Fe           -0.347176      0.087975      0.014629
H            -0.076621      0.054293      0.063117
H            -0.412271      0.239853     -0.221330
H             0.057119      0.234475     -0.036787
H             0.427281      0.063696      0.202243
O            -0.189489      0.086350     -0.084779
O            -0.303571      0.257594      0.139350
O             0.179820      0.253593      0.107005
O             0.290884      0.066009     -0.162659
O            -0.058663      0.053318      0.166063
O            -0.446939      0.225233     -0.122389
O             0.057440      0.252701     -0.140300
O             0.436451      0.077238      0.098580
H             0.064820      0.488902      0.313996
Fe            0.364754     -0.403733     -0.033063
Fe           -0.139375     -0.416188     -0.211417
Fe           -0.347551      0.421159      0.013234
H            -0.098848      0.420655      0.050925
H            -0.442312     -0.424249     -0.212046
H             0.100825     -0.411735     -0.047938
H             0.419896      0.388164      0.199306
O            -0.200998      0.407633     -0.103554
O            -0.289188     -0.405685      0.139072
O             0.201290     -0.421571      0.074789
O             0.321431      0.431882     -0.175681
O            -0.047476      0.401903      0.133923
O            -0.448646     -0.428521     -0.108118
O             0.058649     -0.419630     -0.146720
O             0.446884      0.407459      0.101156
Fe            0.140572     -0.244445     -0.267531
Fe            0.354363     -0.081528      0.476704
Fe           -0.144020     -0.094518      0.281136
Fe           -0.346678     -0.250658     -0.466724
H            -0.083529     -0.240056     -0.433710
H            -0.423996     -0.079577      0.312479
H             0.083138     -0.104330      0.457499
H             0.418754     -0.263720     -0.292635
O            -0.191293     -0.249081      0.411156
O            -0.291216     -0.088325     -0.349356
O             0.186962     -0.086999     -0.411208
O             0.301452     -0.237299      0.337978
O            -0.049104     -0.250349     -0.336746
O            -0.456121     -0.080855      0.414629
O             0.045203     -0.067245      0.365680
O             0.454123     -0.247840     -0.391415
Fe            0.131545      0.079568     -0.271562
Fe            0.349868      0.239838      0.486720
Fe           -0.149485      0.243553      0.263693
Fe           -0.353357      0.082169     -0.474589
H            -0.079840      0.090296     -0.449985
H            -0.417017      0.227351      0.299473
H             0.072876      0.239403      0.448728
H             0.400485      0.070904     -0.294611
O            -0.207184      0.094833      0.401817
O            -0.302734      0.248118     -0.348253
O             0.189788      0.246214     -0.405423
O             0.302986      0.086548      0.346435
O            -0.057347      0.089201     -0.348117
O            -0.441708      0.244010      0.400097
O             0.044164      0.260033      0.352006
O             0.448920      0.086729     -0.384695
Fe            0.147866      0.421773     -0.273915
Lu            0.362801     -0.413318      0.454674
Fe           -0.140987     -0.419743      0.280590
Fe           -0.348142      0.421784     -0.472071
H            -0.073393      0.440207     -0.446326
H            -0.384247     -0.392457      0.297154
H             0.127267     -0.403796     -0.499302
H             0.419311      0.423326     -0.298208
O            -0.204292      0.418627      0.391084
O            -0.296753     -0.416618     -0.344932
O             0.186475     -0.408568     -0.412695
O             0.314037      0.393448      0.337500
O            -0.063409      0.420537     -0.344140
O            -0.426719     -0.411082      0.392999
O             0.067882     -0.415063      0.362368
O             0.455597      0.421538     -0.398584
H            -0.265992     -0.318243      0.076798
H            -0.408902     -0.187992     -0.100154
H             0.104233      0.317847      0.133126
H             0.233341      0.370248      0.298753
data_nwchem_pspw

_audit_creation_date   Sat Aug 31 03:12:07 2024
_audit_creation_method    generated by PSPW module of NWChem


_cell_length_a            10.0667
_cell_length_b             9.1552
_cell_length_c             9.2041
_cell_angle_alpha         90.0000
_cell_angle_beta          90.0000
_cell_angle_gamma         90.0000

_symmetry_space_group_name_H-M     P1  

loop_
_atom_site_type_symbol
_atom_site_fract_x
_atom_site_fract_y
_atom_site_fract_z
Fe            0.154193     -0.253745      0.201900
Fe            0.351557     -0.080991     -0.031277
Fe           -0.148302     -0.095126     -0.218755
H            -0.382209     -0.160394      0.110811
H            -0.064437     -0.257258      0.038757
H            -0.422552     -0.059521     -0.235861
H             0.074060     -0.054719     -0.026265
H             0.422934     -0.213345      0.182088
O            -0.187837     -0.249424     -0.088106
O            -0.308134     -0.085780      0.124963
O             0.205798     -0.075107      0.096422
O             0.298065     -0.243240     -0.149816
O            -0.029860     -0.246460      0.141568
O            -0.447640     -0.081329     -0.136342
O             0.042994     -0.079268     -0.126410
O             0.472564     -0.233978      0.095572
Fe            0.146648      0.071408      0.251248
Lu            0.338261      0.252445     -0.021867
Fe           -0.140330      0.245350     -0.232222
Fe           -0.341902      0.096320      0.021250
H            -0.093174      0.078192      0.037554
H            -0.398058      0.250496     -0.199922
H             0.069182      0.232578     -0.030841
H             0.436593      0.074298      0.206956
O            -0.187934      0.090216     -0.102678
O            -0.296428      0.251599      0.154999
O             0.171446      0.268661      0.124913
O             0.306057      0.078031     -0.156236
O            -0.063972      0.083371      0.138453
O            -0.448381      0.247592     -0.109782
O             0.049548      0.232422     -0.133050
O             0.454768      0.073404      0.104789
H             0.093733     -0.494690      0.314835
Fe            0.375641     -0.400384     -0.020716
Fe           -0.158076     -0.415646     -0.224650
Fe           -0.342472      0.430442      0.011560
H            -0.082221      0.433496      0.050189
H            -0.443144     -0.443861     -0.233015
H             0.064871     -0.407350     -0.037607
H             0.447544      0.430056      0.201523
O            -0.193517      0.407924     -0.102552
O            -0.284341     -0.417941      0.149243
O             0.243548     -0.410289      0.119322
O             0.313719      0.431334     -0.162746
O            -0.040998      0.439234      0.146021
O            -0.457231     -0.422613     -0.133085
O             0.044490     -0.413084     -0.138204
O             0.461869      0.405745      0.102612
Fe            0.137755     -0.241425     -0.263273
Fe            0.350007     -0.083337      0.478697
Fe           -0.142295     -0.091327      0.264460
Fe           -0.344791     -0.246721     -0.475686
H            -0.096767     -0.231654     -0.435773
H            -0.436076     -0.085966      0.297535
H             0.073791     -0.108012      0.452193
H             0.426202     -0.227259     -0.298643
O            -0.192381     -0.254556      0.397279
O            -0.303994     -0.077984     -0.340654
O             0.190998     -0.090453     -0.398708
O             0.307563     -0.220327      0.339293
O            -0.053423     -0.265602     -0.348484
O            -0.453339     -0.075173      0.399354
O             0.053592     -0.090522      0.352668
O             0.459731     -0.248068     -0.396164
Fe            0.129072      0.071726     -0.265139
Fe            0.339916      0.237071      0.496836
Fe           -0.137230      0.253160      0.271216
Fe           -0.351115      0.082353     -0.477332
H            -0.087611      0.068256     -0.446729
H            -0.430510      0.236637      0.294697
H             0.053134      0.259317      0.464105
H             0.395373      0.092175     -0.293261
O            -0.195672      0.062104      0.396716
O            -0.295549      0.243507     -0.339255
O             0.199212      0.239898     -0.374927
O             0.304605      0.095953      0.360005
O            -0.053528      0.073169     -0.347868
O            -0.443462      0.250565      0.395105
O             0.026108      0.231634      0.369935
O             0.439017      0.093646     -0.389769
Fe            0.133579      0.416862     -0.248641
Lu            0.344987     -0.412585      0.451022
Fe           -0.124837     -0.420694      0.285153
Fe           -0.348264      0.405410     -0.478471
H            -0.081836      0.411479     -0.436776
H            -0.395620     -0.415243      0.293442
H             0.102016     -0.433234     -0.468579
H             0.431743      0.424804     -0.301123
O            -0.188344      0.400516      0.413376
O            -0.287821     -0.427808     -0.364454
O             0.173031     -0.419888     -0.397278
O             0.278448      0.392182      0.344626
O            -0.045199      0.421686     -0.338640
O            -0.433345     -0.418980      0.389724
O             0.067783     -0.403911      0.364540
O             0.449626      0.418172     -0.405024
H            -0.270291     -0.338200      0.080135
H            -0.384026     -0.147440     -0.097702
H             0.087473      0.324673      0.136980
H             0.227551      0.353539      0.259167
data_nwchem_pspw

_audit_creation_date   Sat Aug 31 08:05:10 2024
_audit_creation_method    generated by PSPW module of NWChem


_cell_length_a            10.0667
_cell_length_b             9.1552
_cell_length_c             9.2041
_cell_angle_alpha         90.0000
_cell_angle_beta          90.0000
_cell_angle_gamma         90.0000

_symmetry_space_group_name_H-M     P1  

loop_
_atom_site_type_symbol
_atom_site_fract_x
_atom_site_fract_y
_atom_site_fract_z
Fe            0.145974     -0.249026      0.215396
Fe            0.347878     -0.096293     -0.017043
Fe           -0.151425     -0.089362     -0.212054
H            -0.384931     -0.141720      0.119622
H            -0.103365     -0.257427      0.044772
H            -0.415265     -0.100711     -0.226222
H             0.067409     -0.085615     -0.041646
H             0.426713     -0.277569      0.197120
O            -0.199379     -0.257953     -0.085174
O            -0.312725     -0.075468      0.143805
O             0.196308     -0.066824      0.096846
O             0.292353     -0.245108     -0.146310
O            -0.063079     -0.253727      0.143405
O            -0.442271     -0.107515     -0.119009
O             0.048778     -0.093220     -0.144107
O             0.455826     -0.245630      0.103269
Fe            0.151734      0.085552      0.235661
Lu            0.353224      0.263443     -0.023391
Fe           -0.139169      0.251774     -0.213359
Fe           -0.346005      0.095163      0.023102
H            -0.081847      0.078443      0.039616
H            -0.402696      0.247712     -0.217596
H             0.062995      0.247407     -0.051592
H             0.428691      0.070646      0.201481
O            -0.193470      0.073863     -0.096070
O            -0.303604      0.247266      0.158742
O             0.173923      0.270600      0.107307
O             0.315934      0.071966     -0.159927
O            -0.061148      0.088761      0.143778
O            -0.427678      0.247919     -0.113842
O             0.061366      0.251508     -0.156405
O             0.455030      0.074473      0.101095
H             0.096656      0.492406      0.325372
Fe            0.349996     -0.401757     -0.009157
Fe           -0.147226     -0.429139     -0.229109
Fe           -0.360385      0.419735     -0.006749
H            -0.086617      0.439991      0.047091
H            -0.429990     -0.427230     -0.206362
H             0.086355     -0.438456     -0.046999
H             0.422889      0.412443      0.200569
O            -0.195171      0.411526     -0.102927
O            -0.298763     -0.421293      0.142732
O             0.201667     -0.420229      0.107940
O             0.299334      0.432923     -0.165806
O            -0.046845      0.432794      0.141656
O            -0.463556     -0.432923     -0.107817
O             0.056192     -0.423006     -0.146441
O             0.459385      0.431057      0.103695
Fe            0.142380     -0.251759     -0.270700
Fe            0.339783     -0.081763      0.472341
Fe           -0.154820     -0.091198      0.276859
Fe           -0.359453     -0.263923     -0.472090
H            -0.081030     -0.232176     -0.453724
H            -0.431193     -0.074936      0.305538
H             0.084747     -0.092351      0.441204
H             0.414743     -0.259606     -0.290375
O            -0.204333     -0.241599      0.402275
O            -0.296369     -0.091412     -0.362924
O             0.199351     -0.086020     -0.397822
O             0.300902     -0.234732      0.334109
O            -0.061821     -0.248959     -0.353190
O            -0.467067     -0.091312      0.402221
O             0.048209     -0.091492      0.345573
O             0.447858     -0.251225     -0.388686
Fe            0.148978      0.075255     -0.270237
Fe            0.341452      0.241794      0.486015
Fe           -0.138809      0.252802      0.274540
Fe           -0.359332      0.083215     -0.462593
H            -0.087267      0.078130     -0.444268
H            -0.398130      0.234734      0.316293
H             0.064032      0.226635      0.464990
H             0.409487      0.066421     -0.295061
O            -0.206184      0.083432      0.398212
O            -0.282143      0.249946     -0.345990
O             0.191693      0.248757     -0.397834
O             0.294802      0.085344      0.353179
O            -0.051079      0.091867     -0.347826
O            -0.450183      0.240811      0.407108
O             0.052743      0.245854      0.362710
O             0.450027      0.075923     -0.392774
Fe            0.139895      0.429317     -0.276359
Lu            0.372832     -0.412273      0.460510
Fe           -0.145473     -0.417726      0.272831
Fe           -0.354333      0.412909     -0.468808
H            -0.085133      0.384246     -0.456543
H            -0.391606     -0.431532      0.291238
H             0.092551     -0.421918      0.469702
H             0.402026      0.399325     -0.308484
O            -0.199636      0.413330      0.402022
O            -0.312843     -0.419677     -0.342095
O             0.193518     -0.411563     -0.414801
O             0.292259      0.403059      0.340077
O            -0.056449      0.401595     -0.356803
O            -0.429835     -0.435271      0.389472
O             0.049377     -0.428126      0.366745
O             0.452022      0.411945     -0.397933
H            -0.298089     -0.343311      0.072424
H            -0.396204     -0.200805     -0.102964
H             0.096033      0.337406      0.120643
H             0.219507      0.363855      0.287504
data_nwchem_pspw

_audit_creation_date   Sat Aug 31 12:09:48 2024
_audit_creation_method    generated by PSPW module of NWChem


_cell_length_a            10.0667
_cell_length_b             9.1552
_cell_length_c             9.2041
_cell_angle_alpha         90.0000
_cell_angle_beta          90.0000
_cell_angle_gamma         90.0000

_symmetry_space_group_name_H-M     P1  

loop_
_atom_site_type_symbol
_atom_site_fract_x
_atom_site_fract_y
_atom_site_fract_z
Fe            0.146652     -0.248169      0.213168
Fe            0.365733     -0.096351     -0.023336
Fe           -0.141634     -0.073366     -0.219683
H            -0.322737     -0.179251      0.128444
H            -0.095061     -0.247270      0.050876
H            -0.391113     -0.073703     -0.253478
H             0.070832     -0.071833     -0.033460
H             0.409679     -0.240463      0.193134
O            -0.205151     -0.249493     -0.094122
O            -0.319200     -0.078158      0.155058
O             0.204988     -0.072465      0.100406
O             0.300802     -0.248238     -0.153462
O            -0.059149     -0.240128      0.148898
O            -0.458480     -0.089840     -0.113123
O             0.043124     -0.069947     -0.134657
O             0.462394     -0.261187      0.108590
Fe            0.142283      0.080819      0.241013
Lu            0.343800      0.261417     -0.025269
Fe           -0.137117      0.251799     -0.224025
Fe           -0.359043      0.082853      0.016883
H            -0.088364      0.053963      0.061539
H            -0.441784      0.243287     -0.212132
H             0.050799      0.217772     -0.042612
H             0.428168      0.066778      0.203670
O            -0.197344      0.080245     -0.092766
O            -0.302763      0.243936      0.159532
O             0.185128      0.253700      0.122807
O             0.315548      0.069760     -0.173627
O            -0.050931      0.080796      0.154466
O            -0.450556      0.232622     -0.105452
O             0.061171      0.245059     -0.141717
O             0.445384      0.090400      0.105313
H             0.099136      0.484111      0.345268
Fe            0.364209     -0.408244     -0.010426
Fe           -0.166872     -0.407768     -0.229361
Fe           -0.347313      0.392642      0.001579
H            -0.075380      0.371042      0.037697
H            -0.445369     -0.465831     -0.213898
H             0.073636     -0.441976     -0.040752
H             0.456132      0.402216      0.201206
O            -0.195051      0.420302     -0.112136
O            -0.287489     -0.430383      0.135798
O             0.201222     -0.415409      0.097683
O             0.317566      0.444018     -0.170424
O            -0.053060      0.388886      0.137977
O            -0.447247     -0.437736     -0.115080
O             0.045513     -0.431916     -0.141164
O             0.463575      0.412449      0.097662
Fe            0.136601     -0.238951     -0.250472
Fe            0.359083     -0.074595      0.475967
Fe           -0.142968     -0.082301      0.293199
Fe           -0.352819     -0.253615     -0.483439
H            -0.106625     -0.234649     -0.439505
H            -0.411929     -0.052261      0.305709
H             0.075548     -0.085847      0.470986
H             0.428393     -0.293036     -0.305431
O            -0.200799     -0.258251      0.402042
O            -0.306539     -0.074608     -0.335795
O             0.200077     -0.086919     -0.399281
O             0.298230     -0.227328      0.342144
O            -0.064359     -0.240584     -0.343908
O            -0.446580     -0.048537      0.403403
O             0.050175     -0.100581      0.371069
O             0.456537     -0.252844     -0.396187
Fe            0.152412      0.075912     -0.281450
Fe            0.360933      0.236377      0.494464
Fe           -0.149464      0.251407      0.282752
Fe           -0.347211      0.091767     -0.466132
H            -0.067651      0.086168     -0.445150
H            -0.411168      0.239934      0.291126
H             0.091308      0.255803      0.460125
H             0.410719      0.083072     -0.292295
O            -0.189954      0.071935      0.416763
O            -0.285480      0.255381     -0.351971
O             0.195172      0.252868     -0.383274
O             0.291380      0.086707      0.360317
O            -0.038666      0.082264     -0.343471
O            -0.453177      0.247124      0.386442
O             0.043584      0.241400      0.370034
O             0.461274      0.095338     -0.388849
Fe            0.146283      0.426208     -0.270960
Lu            0.339104     -0.417343      0.452340
Fe           -0.128005     -0.435229      0.267305
Fe           -0.351792      0.418221     -0.486652
H            -0.063418      0.380361     -0.447866
H            -0.409627     -0.431351      0.282561
H             0.117073     -0.380557     -0.479172
H             0.410493      0.397908     -0.298290
O            -0.187178      0.409939      0.404012
O            -0.306594     -0.411794     -0.350333
O             0.180875     -0.400108     -0.393452
O             0.313328      0.393399      0.332850
O            -0.043433      0.402614     -0.348537
O            -0.435157     -0.409159      0.381004
O             0.065368     -0.423354      0.367506
O             0.450177      0.407627     -0.396976
H            -0.259789     -0.355107      0.066395
H            -0.412502     -0.180641     -0.088721
H             0.109243      0.318787      0.135118
H             0.257913      0.359962      0.255292
data_nwchem_pspw

_audit_creation_date   Sat Aug 31 16:08:10 2024
_audit_creation_method    generated by PSPW module of NWChem


_cell_length_a            10.0667
_cell_length_b             9.1552
_cell_length_c             9.2041
_cell_angle_alpha         90.0000
_cell_angle_beta          90.0000
_cell_angle_gamma         90.0000

_symmetry_space_group_name_H-M     P1  

loop_
_atom_site_type_symbol
_atom_site_fract_x
_atom_site_fract_y
_atom_site_fract_z
Fe            0.147095     -0.243202      0.217631
Fe            0.330051     -0.082954     -0.030001
Fe           -0.167989     -0.093128     -0.218520
H            -0.351062     -0.174746      0.132441
H            -0.067961     -0.231518      0.029888
H            -0.391065     -0.067029     -0.227131
H             0.076977     -0.081488     -0.040947
H             0.389687     -0.216456      0.187980
O            -0.207275     -0.254760     -0.101584
O            -0.329234     -0.080352      0.173295
O             0.179786     -0.069023      0.088635
O             0.300138     -0.249502     -0.163317
O            -0.049713     -0.251445      0.129661
O            -0.439440     -0.079161     -0.125676
O             0.035041     -0.096515     -0.134375
O             0.430879     -0.221690      0.090873
Fe            0.139962      0.078564      0.232631
Lu            0.347004      0.249677     -0.021041
Fe           -0.138220      0.240903     -0.216979
Fe           -0.364459      0.084036      0.035699
H            -0.098986      0.084656      0.052607
H            -0.415809      0.251107     -0.203044
H             0.066750      0.222083     -0.033528
H             0.416805      0.054603      0.220484
O            -0.193472      0.084967     -0.092866
O            -0.311622      0.247684      0.157065
O             0.187338      0.260117      0.120872
O             0.317289      0.082408     -0.161140
O            -0.051464      0.078674      0.145941
O            -0.447531      0.254030     -0.103519
O             0.055036      0.240920     -0.133312
O             0.445087      0.091373      0.126869
H             0.129111     -0.479273      0.327971
Fe            0.361807     -0.389665     -0.015703
Fe           -0.154820     -0.420753     -0.234395
Fe           -0.356601      0.424217      0.011411
H            -0.096472      0.435951      0.075092
H            -0.432515     -0.420306     -0.211387
H             0.071332     -0.414868     -0.043642
H             0.440553      0.418713      0.212080
O            -0.197280      0.420349     -0.102543
O            -0.280193     -0.417196      0.139769
O             0.200943     -0.386210      0.091349
O             0.286096      0.436782     -0.141461
O            -0.044510      0.408878      0.159347
O            -0.445995     -0.420310     -0.108471
O             0.043565     -0.422440     -0.143892
O             0.460257      0.431398      0.109991
Fe            0.126907     -0.251534     -0.258586
Fe            0.343680     -0.083558      0.480405
Fe           -0.146421     -0.088587      0.282156
Fe           -0.348453     -0.252505     -0.488230
H            -0.067990     -0.269178     -0.444632
H            -0.429494     -0.062675      0.312623
H             0.078160     -0.075048      0.451057
H             0.428183     -0.240718     -0.297080
O            -0.184248     -0.237188      0.411707
O            -0.301712     -0.078732     -0.359735
O             0.197246     -0.094449     -0.399085
O             0.308768     -0.235156      0.325702
O            -0.050570     -0.268917     -0.340637
O            -0.453248     -0.095271      0.409111
O             0.048661     -0.083092      0.351376
O             0.459761     -0.239076     -0.396748
Fe            0.144556      0.060514     -0.286238
Fe            0.354375      0.236406      0.477601
Fe           -0.149683      0.249848      0.278974
Fe           -0.361763      0.088298     -0.476779
H            -0.060049      0.066067     -0.449877
H            -0.420771      0.246504      0.285090
H             0.076255      0.256781      0.454946
H             0.410796      0.065544     -0.291046
O            -0.201955      0.080286      0.405707
O            -0.279823      0.235597     -0.351775
O             0.203421      0.232299     -0.389801
O             0.291811      0.076641      0.346239
O            -0.047383      0.048464     -0.348805
O            -0.439422      0.259009      0.389614
O             0.039504      0.229029      0.363712
O             0.448910      0.070937     -0.391405
Fe            0.141233      0.412046     -0.267003
Lu            0.373014     -0.405860      0.458586
Fe           -0.112628     -0.409817      0.277421
Fe           -0.346967      0.412492     -0.477148
H            -0.048962      0.420124     -0.450225
H            -0.379115     -0.391737      0.286728
H             0.109912     -0.420283     -0.474564
H             0.415460      0.415011     -0.288468
O            -0.185735      0.425804      0.402232
O            -0.314605     -0.417657     -0.358004
O             0.184979     -0.421755     -0.405033
O             0.315786      0.405749      0.336800
O            -0.040881      0.405586     -0.346525
O            -0.427923     -0.409050      0.376299
O             0.070082     -0.406093      0.357596
O             0.439091      0.402509     -0.392241
H            -0.237727     -0.356761      0.066224
H            -0.403288     -0.171036     -0.089310
H             0.134336      0.346232      0.128670
H             0.277698      0.340194      0.263554
data_nwchem_pspw

_audit_creation_date   Sat Aug 31 20:11:57 2024
_audit_creation_method    generated by PSPW module of NWChem


_cell_length_a            10.0667
_cell_length_b             9.1552
_cell_length_c             9.2041
_cell_angle_alpha         90.0000
_cell_angle_beta          90.0000
_cell_angle_gamma         90.0000

_symmetry_space_group_name_H-M     P1  

loop_
_atom_site_type_symbol
_atom_site_fract_x
_atom_site_fract_y
_atom_site_fract_z
Fe            0.136391     -0.270395      0.221792
Fe            0.342442     -0.078889     -0.012099
Fe           -0.154905     -0.083703     -0.226596
H            -0.340178     -0.161740      0.090294
H            -0.077522     -0.257900      0.039110
H            -0.416788     -0.051337     -0.204564
H             0.085695     -0.051754     -0.038571
H             0.413619     -0.232808      0.206968
O            -0.190987     -0.244135     -0.101221
O            -0.305497     -0.088893      0.154210
O             0.180842     -0.075629      0.097284
O             0.302988     -0.244707     -0.145595
O            -0.051957     -0.249839      0.139951
O            -0.448354     -0.086203     -0.116881
O             0.039252     -0.059566     -0.131733
O             0.447097     -0.236744      0.106866
Fe            0.128898      0.069648      0.235739
Lu            0.347633      0.252898     -0.032391
Fe           -0.136633      0.245516     -0.235532
Fe           -0.352923      0.097053      0.031219
H            -0.112628      0.066261      0.069580
H            -0.401779      0.231712     -0.195095
H             0.088050      0.226253     -0.051141
H             0.418538      0.052798      0.213522
O            -0.208834      0.082145     -0.096492
O            -0.302803      0.257054      0.153558
O             0.170970      0.247533      0.103689
O             0.302621      0.064893     -0.153205
O            -0.063548      0.079088      0.159975
O            -0.444484      0.255068     -0.104584
O             0.058869      0.249504     -0.151278
O             0.443244      0.075220      0.114474
H             0.093455      0.483721      0.320978
Fe            0.369921     -0.402823     -0.016642
Fe           -0.153918     -0.404778     -0.220899
Fe           -0.348252      0.426153      0.004979
H            -0.066115      0.391445      0.041719
H            -0.408553     -0.433034     -0.206619
H             0.080373     -0.412605     -0.045737
H             0.461831      0.432414      0.216393
O            -0.192194      0.401019     -0.103576
O            -0.289803     -0.418707      0.146279
O             0.216188     -0.395889      0.095226
O             0.321377      0.446022     -0.149680
O            -0.027985      0.392754      0.136600
O            -0.430670     -0.409389     -0.107492
O             0.048190     -0.404968     -0.145163
O             0.458727      0.432118      0.111557
Fe            0.131019     -0.233983     -0.240668
Fe            0.352833     -0.094202      0.483835
Fe           -0.155230     -0.093220      0.281708
Fe           -0.352969     -0.251760     -0.484366
H            -0.080560     -0.232860     -0.445743
H            -0.412408     -0.096750      0.291344
H             0.065975     -0.115909      0.468048
H             0.405445     -0.223944     -0.290433
O            -0.185498     -0.258294      0.408488
O            -0.305104     -0.083413     -0.362386
O             0.211372     -0.088760     -0.379083
O             0.303573     -0.239996      0.336087
O            -0.046197     -0.233486     -0.347798
O            -0.443092     -0.106775      0.391320
O             0.051050     -0.112070      0.364459
O             0.439531     -0.245005     -0.387617
Fe            0.150484      0.086861     -0.275963
Fe            0.355249      0.235073      0.476092
Fe           -0.143073      0.255981      0.263341
Fe           -0.349504      0.084530     -0.491156
H            -0.064945      0.085931     -0.458275
H            -0.393029      0.238529      0.291418
H             0.083757      0.246209      0.437807
H             0.415252      0.101544     -0.303165
O            -0.199772      0.078546      0.401087
O            -0.291167      0.239499     -0.349212
O             0.207475      0.245073     -0.397511
O             0.286641      0.075990      0.353267
O            -0.049866      0.072769     -0.355409
O            -0.430949      0.241464      0.390238
O             0.038061      0.218403      0.350150
O             0.449135      0.082760     -0.398977
Fe            0.151587      0.419984     -0.244960
Lu            0.349622     -0.412866      0.458651
Fe           -0.127842     -0.418348      0.291027
Fe           -0.346675      0.411949     -0.474089
H            -0.086878      0.422812     -0.425713
H            -0.391380     -0.417657      0.288547
H             0.106262     -0.419345     -0.471107
H             0.409208      0.410087     -0.315629
O            -0.188591      0.410841      0.403692
O            -0.300593     -0.408213     -0.356936
O             0.173950     -0.419015     -0.400132
O             0.307292      0.400625      0.331672
O            -0.042114      0.436207     -0.333359
O            -0.438527     -0.425375      0.381541
O             0.062289     -0.427599      0.360547
O             0.449196      0.405994     -0.411856
H            -0.282047     -0.336043      0.087732
H            -0.439802     -0.192436     -0.116260
H             0.094537      0.321910      0.111811
H             0.282869      0.366373      0.238287
data_nwchem_pspw

_audit_creation_date   Sun Sep  1 00:11:52 2024
_audit_creation_method    generated by PSPW module of NWChem


_cell_length_a            10.0667
_cell_length_b             9.1552
_cell_length_c             9.2041
_cell_angle_alpha         90.0000
_cell_angle_beta          90.0000
_cell_angle_gamma         90.0000

_symmetry_space_group_name_H-M     P1  

loop_
_atom_site_type_symbol
_atom_site_fract_x
_atom_site_fract_y
_atom_site_fract_z
Fe            0.148139     -0.254692      0.192986
Fe            0.354586     -0.099996     -0.003667
Fe           -0.157363     -0.090800     -0.215817
H            -0.283699     -0.158946      0.103898
H            -0.102567     -0.210988      0.057011
H            -0.412813     -0.082240     -0.230162
H             0.086081     -0.103034     -0.063313
H             0.406674     -0.267920      0.174562
O            -0.198767     -0.248854     -0.079887
O            -0.303261     -0.079218      0.168284
O             0.180303     -0.077455      0.094350
O             0.313984     -0.242605     -0.171540
O            -0.061569     -0.223606      0.154156
O            -0.441595     -0.108296     -0.130510
O             0.050983     -0.101084     -0.165059
O             0.464952     -0.256719      0.092177
Fe            0.124204      0.089304      0.258219
Lu            0.328615      0.259173     -0.022828
Fe           -0.138139      0.234521     -0.224685
Fe           -0.367781      0.088555      0.047662
H            -0.084528      0.098494      0.060111
H            -0.426010      0.202607     -0.204365
H             0.058615      0.222267     -0.031680
H             0.394863      0.061571      0.206569
O            -0.203876      0.072464     -0.084521
O            -0.295200      0.256355      0.150614
O             0.188629      0.266760      0.144427
O             0.310404      0.060869     -0.142837
O            -0.051128      0.102900      0.158573
O            -0.451425      0.210224     -0.104485
O             0.062187      0.222953     -0.135605
O             0.439975      0.094528      0.117653
H             0.092120     -0.498541      0.329036
Fe            0.361330     -0.405117     -0.037716
Fe           -0.136498     -0.423784     -0.213294
Fe           -0.365505      0.405446      0.005999
H            -0.093596      0.400345      0.037718
H            -0.422473     -0.449404     -0.238975
H             0.085418     -0.434209     -0.032496
H             0.434633      0.421574      0.207400
O            -0.204891      0.406793     -0.108487
O            -0.297143     -0.437449      0.143292
O             0.214951     -0.410561      0.080565
O             0.297684      0.437335     -0.157343
O            -0.045847      0.412611      0.131421
O            -0.455611     -0.451243     -0.141352
O             0.053789     -0.433537     -0.135025
O             0.451010      0.426374      0.103991
Fe            0.151502     -0.243609     -0.270077
Fe            0.359031     -0.074528      0.473841
Fe           -0.136847     -0.080904      0.295875
Fe           -0.339078     -0.257109     -0.475768
H            -0.073256     -0.253847     -0.453365
H            -0.421572     -0.093504      0.300908
H             0.079467     -0.110669      0.468242
H             0.426422     -0.223080     -0.306319
O            -0.190968     -0.264705      0.399606
O            -0.296928     -0.079723     -0.363127
O             0.200354     -0.091256     -0.416704
O             0.300553     -0.226374      0.329773
O            -0.053196     -0.256667     -0.350400
O            -0.445420     -0.095179      0.402481
O             0.052001     -0.087718      0.371683
O             0.448973     -0.246383     -0.405512
Fe            0.153244      0.072446     -0.274549
Fe            0.353066      0.252687      0.494003
Fe           -0.138497      0.271225      0.264902
Fe           -0.342169      0.084669     -0.484813
H            -0.077999      0.099730     -0.456884
H            -0.397998      0.279479      0.294701
H             0.040754      0.247501      0.477061
H             0.435432      0.063621     -0.280644
O            -0.178484      0.098365      0.399701
O            -0.302967      0.248915     -0.344547
O             0.208960      0.240974     -0.377079
O             0.308868      0.084079      0.355561
O            -0.052346      0.090180     -0.354855
O            -0.435562      0.255596      0.388332
O             0.046288      0.257954      0.373735
O             0.463409      0.084630     -0.379327
Fe            0.142917      0.415577     -0.265410
Lu            0.351985     -0.406198      0.448551
Fe           -0.135642     -0.431276      0.274952
Fe           -0.349345      0.417138     -0.471749
H            -0.076181      0.421994     -0.453964
H            -0.402501     -0.417237      0.283166
H             0.101330     -0.409581     -0.476390
H             0.427357      0.442429     -0.296555
O            -0.190384      0.418420      0.404130
O            -0.285071     -0.411061     -0.346479
O             0.179765     -0.418891     -0.407479
O             0.306165      0.392739      0.348700
O            -0.056304      0.398924     -0.353806
O            -0.436297     -0.413726      0.381440
O             0.061657     -0.402614      0.350804
O             0.456193      0.425789     -0.395625
H            -0.296381     -0.356685      0.075534
H            -0.383839     -0.190835     -0.109862
H             0.103216      0.323278      0.147751
H             0.240998      0.358358      0.277647
data_nwchem_pspw

_audit_creation_date   Sun Sep  1 04:11:20 2024
_audit_creation_method    generated by PSPW module of NWChem


_cell_length_a            10.0667
_cell_length_b             9.1552
_cell_length_c             9.2041
_cell_angle_alpha         90.0000
_cell_angle_beta          90.0000
_cell_angle_gamma         90.0000

_symmetry_space_group_name_H-M     P1  

loop_
_atom_site_type_symbol
_atom_site_fract_x
_atom_site_fract_y
_atom_site_fract_z
Fe            0.143771     -0.261528      0.210249
Fe            0.348392     -0.087066     -0.012895
Fe           -0.156171     -0.071677     -0.233397
H            -0.252588     -0.159144      0.028723
H            -0.109737     -0.269677      0.056780
H            -0.440345     -0.087575     -0.238913
H             0.043129     -0.059348     -0.049057
H             0.419113     -0.247523      0.203449
O            -0.205745     -0.243159     -0.091615
O            -0.291139     -0.099422      0.112100
O             0.193892     -0.069881      0.096950
O             0.294782     -0.249912     -0.158153
O            -0.053815     -0.254854      0.140022
O            -0.459291     -0.094505     -0.136094
O             0.035281     -0.059172     -0.153203
O             0.445003     -0.246348      0.102813
Fe            0.139063      0.093177      0.243702
Lu            0.364389      0.261665     -0.020189
Fe           -0.158205      0.254346     -0.221509
Fe           -0.347261      0.088386      0.038796
H            -0.093407      0.082370      0.043024
H            -0.412111      0.219809     -0.201313
H             0.064909      0.223255     -0.051209
H             0.444123      0.073628      0.222045
O            -0.202327      0.080643     -0.096114
O            -0.300720      0.260815      0.154087
O             0.183279      0.272275      0.090397
O             0.313784      0.078157     -0.149315
O            -0.044226      0.081053      0.134227
O            -0.438386      0.233183     -0.100941
O             0.033336      0.252822     -0.147018
O             0.453753      0.076958      0.118701
H             0.093971      0.491350      0.342810
Fe            0.350850     -0.407257     -0.017517
Fe           -0.156135     -0.411839     -0.199070
Fe           -0.357356      0.418249      0.006212
H            -0.102673      0.408728      0.039909
H            -0.431182     -0.426986     -0.208614
H             0.089603     -0.421016     -0.043849
H             0.476039      0.400969      0.229928
O            -0.192259      0.420051     -0.088993
O            -0.301143     -0.423578      0.153738
O             0.201772     -0.414991      0.104129
O             0.294578      0.437328     -0.152130
O            -0.055570      0.411101      0.131424
O            -0.462101     -0.439460     -0.109728
O             0.055204     -0.408899     -0.142801
O             0.464444      0.405973      0.126391
Fe            0.136728     -0.237668     -0.262163
Fe            0.353488     -0.091013      0.472858
Fe           -0.150731     -0.095202      0.282479
Fe           -0.349593     -0.252405     -0.486773
H            -0.082664     -0.240258     -0.447190
H            -0.470483     -0.140301      0.267294
H             0.075450     -0.094858      0.456353
H             0.389095     -0.248686     -0.298170
O            -0.192140     -0.269082      0.397074
O            -0.303277     -0.070915     -0.363283
O             0.196702     -0.075961     -0.405658
O             0.289952     -0.246070      0.351722
O            -0.049826     -0.238535     -0.348855
O            -0.451131     -0.098444      0.360427
O             0.045212     -0.091036      0.356524
O             0.448657     -0.263515     -0.382415
Fe            0.154296      0.083547     -0.263932
Fe            0.345098      0.235592      0.477704
Fe           -0.141371      0.252966      0.259212
Fe           -0.355935      0.078567     -0.491766
H            -0.096067      0.099416     -0.454126
H            -0.410127      0.251639      0.317813
H             0.056195      0.233969      0.453170
H             0.424551      0.042404     -0.305813
O            -0.203533      0.075709      0.384593
O            -0.301996      0.240744     -0.356523
O             0.199976      0.248842     -0.392971
O             0.294328      0.077152      0.356028
O            -0.053461      0.088759     -0.361078
O            -0.463680      0.282827      0.399570
O             0.047741      0.253644      0.351150
O             0.451406      0.057078     -0.405282
Fe            0.139932      0.414325     -0.259131
Lu            0.362789     -0.422988      0.466203
Fe           -0.121305     -0.434985      0.271108
Fe           -0.349460      0.422061     -0.469460
H            -0.089004      0.457112     -0.450311
H            -0.384159     -0.405400      0.299801
H             0.127704     -0.396431     -0.491749
H             0.435557      0.451020     -0.303259
O            -0.209033      0.416113      0.392546
O            -0.302118     -0.421922     -0.347569
O             0.186975     -0.397444     -0.405140
O             0.288459      0.399304      0.346230
O            -0.062002      0.437910     -0.351584
O            -0.430779     -0.414959      0.394210
O             0.047976     -0.417325      0.367419
O             0.447356      0.405593     -0.396689
H            -0.310039     -0.349292      0.081556
H            -0.447208     -0.196419     -0.109993
H             0.100210      0.334442      0.102395
H             0.267698      0.361138      0.248361
data_nwchem_pspw

_audit_creation_date   Sun Sep  1 08:05:22 2024
_audit_creation_method    generated by PSPW module of NWChem


_cell_length_a            10.0667
_cell_length_b             9.1552
_cell_length_c             9.2041
_cell_angle_alpha         90.0000
_cell_angle_beta          90.0000
_cell_angle_gamma         90.0000

_symmetry_space_group_name_H-M     P1  

loop_
_atom_site_type_symbol
_atom_site_fract_x
_atom_site_fract_y
_atom_site_fract_z
Fe            0.143831     -0.243036      0.202658
Fe            0.338587     -0.090477     -0.020817
Fe           -0.150244     -0.072052     -0.220752
H            -0.327509     -0.169233      0.085437
H            -0.097934     -0.262709      0.036202
H            -0.406338     -0.098728     -0.228797
H             0.064901     -0.075997     -0.025767
H             0.414375     -0.217037      0.199206
O            -0.202951     -0.233330     -0.079794
O            -0.300460     -0.087845      0.143425
O             0.192488     -0.066711      0.103175
O             0.286828     -0.253765     -0.129825
O            -0.046703     -0.262769      0.132214
O            -0.426174     -0.093583     -0.128830
O             0.041886     -0.066918     -0.126696
O             0.461266     -0.231392      0.108813
Fe            0.141101      0.088500      0.252110
Lu            0.325765      0.243767     -0.022146
Fe           -0.139921      0.244427     -0.237258
Fe           -0.356524      0.083779      0.031825
H            -0.077386      0.102502      0.052734
H            -0.431423      0.235314     -0.199315
H             0.062623      0.241835     -0.056208
H             0.440139      0.075799      0.197231
O            -0.208076      0.087787     -0.103066
O            -0.299049      0.245703      0.158632
O             0.153983      0.262387      0.114701
O             0.318852      0.072527     -0.167057
O            -0.050410      0.091651      0.152766
O            -0.449229      0.260026     -0.100266
O             0.054767      0.235280     -0.159395
O             0.453218      0.088337      0.093898
H             0.098464     -0.499707      0.324761
Fe            0.366082     -0.417512      0.005848
Fe           -0.153883     -0.403155     -0.203064
Fe           -0.355170      0.425925      0.017807
H            -0.102359      0.423680      0.037195
H            -0.433745     -0.410164     -0.200572
H             0.087303     -0.419274     -0.037473
H             0.404523      0.413663      0.198609
O            -0.202768      0.422429     -0.107329
O            -0.279408     -0.425803      0.155461
O             0.211167     -0.403617      0.106954
O             0.305685      0.431091     -0.154544
O            -0.057785      0.422615      0.133193
O            -0.446863     -0.404216     -0.097394
O             0.056551     -0.413217     -0.136465
O             0.458484      0.409776      0.110260
Fe            0.144071     -0.254506     -0.257090
Fe            0.356831     -0.081587      0.466612
Fe           -0.143184     -0.087899      0.263048
Fe           -0.330174     -0.248616     -0.480823
H            -0.080345     -0.261119     -0.441399
H            -0.414112     -0.104931      0.288983
H             0.078365     -0.103821      0.442204
H             0.430127     -0.245751     -0.305568
O            -0.173769     -0.252422      0.409065
O            -0.286173     -0.071077     -0.355070
O             0.203691     -0.093877     -0.394293
O             0.303289     -0.219433      0.335390
O            -0.052020     -0.249208     -0.339778
O            -0.438212     -0.093523      0.388774
O             0.046412     -0.084757      0.343270
O             0.463195     -0.249456     -0.400506
Fe            0.151713      0.067049     -0.274988
Fe            0.360143      0.234789      0.482157
Fe           -0.139227      0.251185      0.279279
Fe           -0.350132      0.094290     -0.479385
H            -0.074245      0.075968     -0.451283
H            -0.430585      0.257693      0.294467
H             0.066501      0.227736      0.475992
H             0.435008      0.077141     -0.302569
O            -0.206392      0.084056      0.387975
O            -0.302549      0.259212     -0.347456
O             0.204413      0.235751     -0.406202
O             0.315587      0.086963      0.327042
O            -0.056423      0.064739     -0.349888
O            -0.449293      0.252829      0.396433
O             0.050449      0.253959      0.376515
O             0.460160      0.064853     -0.404765
Fe            0.145682      0.406136     -0.272422
Lu            0.349484     -0.411651      0.452635
Fe           -0.117586     -0.428007      0.275635
Fe           -0.353296      0.425088     -0.472503
H            -0.074314      0.435165     -0.437627
H            -0.399617     -0.429102      0.284036
H             0.106790     -0.423780     -0.480552
H             0.400922      0.403190     -0.296482
O            -0.188375      0.424623      0.415777
O            -0.298478     -0.419850     -0.343063
O             0.177779     -0.422370     -0.406279
O             0.313101      0.390743      0.336859
O            -0.041724      0.414511     -0.340637
O            -0.442343     -0.417122      0.377354
O             0.064818     -0.404925      0.354184
O             0.441172      0.404949     -0.393830
H            -0.251812     -0.370713      0.072228
H            -0.408467     -0.186711     -0.084807
H             0.070417      0.323430      0.126204
H             0.238455      0.355711      0.279696
data_nwchem_pspw

_audit_creation_date   Sun Sep  1 12:04:33 2024
_audit_creation_method    generated by PSPW module of NWChem


_cell_length_a            10.0667
_cell_length_b             9.1552
_cell_length_c             9.2041
_cell_angle_alpha         90.0000
_cell_angle_beta          90.0000
_cell_angle_gamma         90.0000

_symmetry_space_group_name_H-M     P1  

loop_
_atom_site_type_symbol
_atom_site_fract_x
_atom_site_fract_y
_atom_site_fract_z
Fe            0.134785     -0.264426      0.205099
Fe            0.340189     -0.086233     -0.018002
Fe           -0.158065     -0.098747     -0.211379
H            -0.375362     -0.162822      0.124016
H            -0.110935     -0.252703      0.025722
H            -0.391813     -0.085624     -0.195939
H             0.087405     -0.098694     -0.056630
H             0.406614     -0.230616      0.196937
O            -0.203070     -0.266767     -0.083496
O            -0.318968     -0.083520      0.161029
O             0.187198     -0.088372      0.097576
O             0.288506     -0.262887     -0.141646
O            -0.071319     -0.248875      0.132336
O            -0.452072     -0.114527     -0.116076
O             0.046800     -0.087380     -0.152093
O             0.452621     -0.239088      0.102542
Fe            0.132791      0.077005      0.233432
Lu            0.361882      0.267707     -0.029634
Fe           -0.157661      0.240636     -0.232099
Fe           -0.344755      0.094505      0.048024
H            -0.075953      0.084177      0.037724
H            -0.410265      0.244835     -0.218894
H             0.071236      0.249996     -0.050582
H             0.427197      0.072829      0.213484
O            -0.202053      0.073925     -0.092795
O            -0.297463      0.252209      0.168333
O             0.189709      0.250399      0.120006
O             0.301883      0.074696     -0.143855
O            -0.056017      0.066889      0.138984
O            -0.437784      0.244397     -0.117461
O             0.046358      0.251081     -0.151617
O             0.445548      0.083743      0.111575
H             0.073239      0.496320      0.317230
Fe            0.351734     -0.408748     -0.014256
Fe           -0.152780     -0.422347     -0.226960
Fe           -0.349425      0.422456      0.017202
H            -0.057382      0.388844      0.058585
H            -0.426901     -0.402666     -0.194209
H             0.056084     -0.399029     -0.049367
H             0.433234      0.437237      0.205206
O            -0.205846      0.409955     -0.113641
O            -0.288550     -0.403996      0.138870
O             0.198753     -0.424684      0.097689
O             0.294075      0.440711     -0.155690
O            -0.038374      0.394174      0.160014
O            -0.449975     -0.410803     -0.093431
O             0.045716     -0.420919     -0.150792
O             0.464706      0.415300      0.109827
Fe            0.145019     -0.254273     -0.265458
Fe            0.356348     -0.086084      0.473769
Fe           -0.137545     -0.081573      0.278149
Fe           -0.330874     -0.252785     -0.485489
H            -0.098142     -0.236424     -0.446959
H            -0.420420     -0.097422      0.289035
H             0.085628     -0.099910      0.462678
H             0.468051     -0.214586     -0.306141
O            -0.175450     -0.248153      0.394457
O            -0.303296     -0.089801     -0.338930
O             0.201383     -0.087511     -0.397203
O             0.283940     -0.225124      0.338511
O            -0.065664     -0.231403     -0.347169
O            -0.451984     -0.088123      0.388986
O             0.050754     -0.090157      0.364005
O             0.462284     -0.240157     -0.407512
Fe            0.139693      0.080554     -0.256438
Fe            0.343582      0.238028      0.488411
Fe           -0.138310      0.251922      0.280497
Fe           -0.357935      0.073233     -0.482305
H            -0.080721      0.098120     -0.446715
H            -0.432498      0.230508      0.298434
H             0.050195      0.222867      0.481976
H             0.424139      0.065408     -0.290332
O            -0.185036      0.079414      0.413248
O            -0.310894      0.249499     -0.361492
O             0.204666      0.243423     -0.373935
O             0.295898      0.089848      0.348974
O            -0.054186      0.079235     -0.345827
O            -0.454578      0.231384      0.399916
O             0.039459      0.255602      0.384258
O             0.442749      0.076107     -0.389875
Fe            0.138816      0.418265     -0.281393
Lu            0.360067     -0.406249      0.463531
Fe           -0.129702     -0.419333      0.258743
Fe           -0.347951      0.410208     -0.481429
H            -0.069150      0.409828     -0.457709
H            -0.415308     -0.397607      0.287420
H             0.101895     -0.402285     -0.499639
H             0.424239      0.426307     -0.297210
O            -0.201217      0.436537      0.399366
O            -0.304298     -0.424339     -0.355137
O             0.168519     -0.419180     -0.415989
O             0.315430      0.408261      0.340196
O            -0.049470      0.409316     -0.355065
O            -0.447340     -0.406839      0.386581
O             0.050810     -0.410268      0.359104
O             0.444374      0.419907     -0.400042
H            -0.262354     -0.326942      0.065079
H            -0.405510     -0.208510     -0.093503
H             0.118216      0.324777      0.131973
H             0.257809      0.382309      0.262131
data_nwchem_pspw

_audit_creation_date   Sun Sep  1 16:05:58 2024
_audit_creation_method    generated by PSPW module of NWChem


_cell_length_a            10.0667
_cell_length_b             9.1552
_cell_length_c             9.2041
_cell_angle_alpha         90.0000
_cell_angle_beta          90.0000
_cell_angle_gamma         90.0000

_symmetry_space_group_name_H-M     P1  

loop_
_atom_site_type_symbol
_atom_site_fract_x
_atom_site_fract_y
_atom_site_fract_z
Fe            0.141406     -0.269285      0.203496
Fe            0.356123     -0.093262     -0.006565
Fe           -0.154698     -0.082440     -0.217913
H            -0.352697     -0.159126      0.134692
H            -0.065739     -0.220651      0.041700
H            -0.402501     -0.084106     -0.214592
H             0.097273     -0.064876     -0.047741
H             0.409010     -0.245909      0.204277
O            -0.202712     -0.255839     -0.094591
O            -0.309261     -0.065248      0.159456
O             0.192896     -0.073062      0.096288
O             0.311737     -0.247739     -0.146066
O            -0.049065     -0.238306      0.143057
O            -0.432515     -0.106251     -0.118498
O             0.066209     -0.071648     -0.148813
O             0.452662     -0.242278      0.109751
Fe            0.138728      0.083121      0.256545
Lu            0.338794      0.251787     -0.021630
Fe           -0.146983      0.250933     -0.246469
Fe           -0.355677      0.084047      0.023321
H            -0.083390      0.098636      0.058004
H            -0.416296      0.226731     -0.205781
H             0.066679      0.238445     -0.038632
H             0.433974      0.062325      0.206386
O            -0.210225      0.092332     -0.112347
O            -0.292374      0.254992      0.145308
O             0.169277      0.256510      0.119106
O             0.305247      0.066183     -0.150225
O            -0.059217      0.086535      0.158163
O            -0.446759      0.238459     -0.107089
O             0.058451      0.247550     -0.142927
O             0.457283      0.081949      0.107246
H             0.095810      0.473481      0.322611
Fe            0.360799     -0.421241     -0.013941
Fe           -0.147985     -0.418743     -0.214775
Fe           -0.355471      0.410475      0.013637
H            -0.105302      0.406288      0.027023
H            -0.419215     -0.421497     -0.211586
H             0.077163     -0.422099     -0.042885
H             0.443870      0.410422      0.216822
O            -0.185436      0.408116     -0.096457
O            -0.293897     -0.395843      0.132109
O             0.198098     -0.420621      0.082611
O             0.307675      0.436965     -0.158521
O            -0.055530      0.405924      0.123258
O            -0.451543     -0.435452     -0.112751
O             0.046779     -0.403777     -0.141796
O             0.464375      0.415476      0.115480
Fe            0.158595     -0.229093     -0.258076
Fe            0.358688     -0.088416      0.482512
Fe           -0.152010     -0.091337      0.279408
Fe           -0.347616     -0.253274     -0.487167
H            -0.064120     -0.275821     -0.436210
H            -0.400919     -0.066667      0.312708
H             0.065885     -0.103735      0.464108
H             0.441695     -0.225387     -0.292804
O            -0.192306     -0.262089      0.386435
O            -0.307072     -0.080135     -0.353700
O             0.199850     -0.070951     -0.404798
O             0.289671     -0.229358      0.344159
O            -0.047953     -0.244980     -0.334914
O            -0.435134     -0.087909      0.410083
O             0.052741     -0.102655      0.360601
O             0.459943     -0.255156     -0.389223
Fe            0.152252      0.092602     -0.265624
Fe            0.350292      0.231912      0.497455
Fe           -0.135684      0.273820      0.279320
Fe           -0.346169      0.084999     -0.478580
H            -0.086726      0.079520     -0.454788
H            -0.409496      0.246868      0.302463
H             0.090446      0.240176      0.456589
H             0.417562      0.061907     -0.287266
O            -0.202810      0.067744      0.394325
O            -0.305123      0.265120     -0.361735
O             0.201449      0.258003     -0.388337
O             0.303639      0.073745      0.354458
O            -0.058803      0.077259     -0.353102
O            -0.451017      0.245369      0.398387
O             0.046123      0.236117      0.363755
O             0.445342      0.077587     -0.385781
Fe            0.132253      0.427935     -0.255505
Lu            0.355936     -0.414834      0.457006
Fe           -0.127769     -0.421003      0.252927
Fe           -0.361847      0.422537     -0.490183
H            -0.090136      0.410961     -0.450251
H            -0.390854     -0.406128      0.274495
H             0.114967     -0.406598     -0.482332
H             0.421416      0.402072     -0.302595
O            -0.196565      0.424611      0.406750
O            -0.298070     -0.410357     -0.351639
O             0.179198     -0.415745     -0.407877
O             0.305498      0.397858      0.344870
O            -0.049728      0.416312     -0.354505
O            -0.440234     -0.408007      0.365161
O             0.062563     -0.431625      0.341008
O             0.440726      0.412541     -0.405013
H            -0.282409     -0.336251      0.043445
H            -0.402595     -0.198490     -0.089068
H             0.101374      0.327075      0.149331
H             0.255935      0.359193      0.263031
data_nwchem_pspw

_audit_creation_date   Sun Sep  1 20:59:00 2024
_audit_creation_method    generated by PSPW module of NWChem


_cell_length_a            10.0667
_cell_length_b             9.1552
_cell_length_c             9.2041
_cell_angle_alpha         90.0000
_cell_angle_beta          90.0000
_cell_angle_gamma         90.0000

_symmetry_space_group_name_H-M     P1  

loop_
_atom_site_type_symbol
_atom_site_fract_x
_atom_site_fract_y
_atom_site_fract_z
Fe            0.140721     -0.237730      0.198759
Fe            0.354298     -0.079637     -0.013697
Fe           -0.146729     -0.106169     -0.218169
H            -0.380402     -0.155774      0.107534
H            -0.098252     -0.262065      0.038161
H            -0.435317     -0.083282     -0.226843
H             0.073756     -0.084901     -0.060075
H             0.428936     -0.222535      0.191607
O            -0.202408     -0.253770     -0.075048
O            -0.323051     -0.078371      0.150628
O             0.178740     -0.066983      0.087686
O             0.307489     -0.239679     -0.161263
O            -0.054189     -0.244309      0.137966
O            -0.449647     -0.088035     -0.124991
O             0.041221     -0.081436     -0.160327
O             0.466659     -0.220963      0.094374
Fe            0.134807      0.080747      0.244241
Lu            0.346365      0.257325     -0.035752
Fe           -0.144203      0.227157     -0.236228
Fe           -0.347218      0.094781      0.031341
H            -0.112873      0.081093      0.044026
H            -0.398041      0.251085     -0.201045
H             0.067139      0.234782     -0.049586
H             0.418580      0.054711      0.190020
O            -0.208140      0.071261     -0.106264
O            -0.310458      0.260288      0.159052
O             0.176035      0.250040      0.112951
O             0.303659      0.072717     -0.154759
O            -0.077809      0.086106      0.142966
O            -0.447001      0.238092     -0.111292
O             0.044533      0.237433     -0.149383
O             0.447786      0.081210      0.093432
H             0.107252      0.496684      0.354221
Fe            0.371250     -0.390729     -0.017639
Fe           -0.143567     -0.423921     -0.193184
Fe           -0.353027      0.423958      0.022160
H            -0.081613      0.398605      0.050840
H            -0.399759     -0.429601     -0.199084
H             0.057264     -0.410619     -0.026368
H             0.471364      0.440708      0.222813
O            -0.202129      0.398963     -0.089342
O            -0.287655     -0.434354      0.158933
O             0.224197     -0.383278      0.101472
O             0.290118      0.448618     -0.159314
O            -0.042527      0.400822      0.146421
O            -0.446524     -0.435510     -0.103220
O             0.048339     -0.408247     -0.133461
O             0.470647      0.431426      0.119448
Fe            0.144787     -0.247871     -0.271996
Fe            0.362083     -0.088461      0.469296
Fe           -0.153688     -0.091430      0.282423
Fe           -0.348586     -0.258020     -0.453362
H            -0.080454     -0.274011     -0.451645
H            -0.405298     -0.093275      0.312529
H             0.083790     -0.089476      0.450629
H             0.403215     -0.228858     -0.299654
O            -0.200462     -0.249850      0.413263
O            -0.297740     -0.091146     -0.344761
O             0.203854     -0.084546     -0.414727
O             0.295478     -0.231812      0.331399
O            -0.053521     -0.264348     -0.353094
O            -0.444828     -0.108688      0.407740
O             0.039547     -0.081293      0.356274
O             0.444871     -0.246340     -0.395632
Fe            0.148377      0.073855     -0.288226
Fe            0.357469      0.240736      0.475938
Fe           -0.147341      0.255955      0.265717
Fe           -0.350826      0.088698     -0.473766
H            -0.071916      0.068298     -0.457054
H            -0.417752      0.257424      0.317916
H             0.069727      0.236498      0.453706
H             0.429207      0.077620     -0.303292
O            -0.202125      0.101725      0.399468
O            -0.300900      0.250545     -0.343632
O             0.207349      0.249497     -0.394355
O             0.303450      0.083016      0.339465
O            -0.056440      0.063899     -0.354454
O            -0.452354      0.239770      0.414846
O             0.041572      0.242436      0.354680
O             0.448467      0.068629     -0.404859
Fe            0.134606      0.405044     -0.251317
Lu            0.350033     -0.412314      0.452141
Fe           -0.114067     -0.418291      0.290308
Fe           -0.354798      0.421139     -0.475943
H            -0.083263      0.402386     -0.453736
H            -0.392954     -0.396074      0.300229
H             0.113889     -0.423516     -0.459418
H             0.431337      0.425994     -0.299579
O            -0.204565      0.431165      0.395341
O            -0.305790     -0.419891     -0.322741
O             0.183832     -0.420670     -0.386594
O             0.299971      0.394333      0.346254
O            -0.053353      0.402840     -0.353934
O            -0.440799     -0.401294      0.393333
O             0.082514     -0.403851      0.368526
O             0.456655      0.416659     -0.398051
H            -0.283379     -0.340065      0.118389
H            -0.402827     -0.171010     -0.094620
H             0.097100      0.312392      0.122120
H             0.259623      0.356431      0.256847
data_nwchem_pspw

_audit_creation_date   Mon Sep  2 01:30:10 2024
_audit_creation_method    generated by PSPW module of NWChem


_cell_length_a            10.0667
_cell_length_b             9.1552
_cell_length_c             9.2041
_cell_angle_alpha         90.0000
_cell_angle_beta          90.0000
_cell_angle_gamma         90.0000

_symmetry_space_group_name_H-M     P1  

loop_
_atom_site_type_symbol
_atom_site_fract_x
_atom_site_fract_y
_atom_site_fract_z
Fe            0.152939     -0.264098      0.227752
Fe            0.344178     -0.094127      0.000047
Fe           -0.154395     -0.077490     -0.236835
H            -0.384500     -0.160995      0.140107
H            -0.092812     -0.231653      0.043406
H            -0.413504     -0.073691     -0.219259
H             0.086113     -0.072658     -0.044331
H             0.424315     -0.261166      0.187535
O            -0.209809     -0.233568     -0.109760
O            -0.322230     -0.080673      0.148159
O             0.194032     -0.080654      0.113069
O             0.289128     -0.240649     -0.155105
O            -0.066773     -0.258414      0.142651
O            -0.422925     -0.085012     -0.113912
O             0.042187     -0.067608     -0.139085
O             0.475312     -0.240360      0.101697
Fe            0.124850      0.083958      0.243032
Lu            0.352892      0.243387     -0.013353
Fe           -0.156101      0.247704     -0.244734
Fe           -0.352543      0.088401      0.019280
H            -0.101818      0.060525      0.036987
H            -0.401417      0.275560     -0.205842
H             0.061617      0.205293     -0.059182
H             0.445758      0.086335      0.224397
O            -0.200112      0.091560     -0.099465
O            -0.301098      0.264675      0.137791
O             0.171701      0.253169      0.111706
O             0.302516      0.069500     -0.153509
O            -0.065706      0.063553      0.136582
O            -0.462285      0.261733     -0.122419
O             0.044345      0.246500     -0.151895
O             0.457280      0.081468      0.119263
H             0.106332      0.489773      0.317485
Fe            0.349643     -0.415907     -0.017333
Fe           -0.145437     -0.405818     -0.225351
Fe           -0.362526      0.432298     -0.002369
H            -0.103536      0.421992      0.053950
H            -0.456139     -0.362417     -0.184778
H             0.075449     -0.387511     -0.043116
H             0.450438      0.414486      0.210953
O            -0.204140      0.411207     -0.113800
O            -0.288316     -0.418928      0.149948
O             0.201178     -0.403788      0.097707
O             0.292928      0.426945     -0.139712
O            -0.038738      0.407973      0.131668
O            -0.475677     -0.434111     -0.114558
O             0.050553     -0.396951     -0.144099
O             0.455669      0.427143      0.108138
Fe            0.134343     -0.239519     -0.264497
Fe            0.348103     -0.083539      0.487653
Fe           -0.158143     -0.089033      0.274724
Fe           -0.342032     -0.238710     -0.474783
H            -0.078380     -0.213616     -0.462984
H            -0.410432     -0.041129      0.302243
H             0.084500     -0.084432      0.462582
H             0.411477     -0.220696     -0.299072
O            -0.193522     -0.270401      0.395616
O            -0.314561     -0.077218     -0.356477
O             0.194678     -0.078411     -0.401281
O             0.305193     -0.241856      0.349949
O            -0.050241     -0.236386     -0.364883
O            -0.447021     -0.063922      0.398692
O             0.048324     -0.104632      0.365242
O             0.459325     -0.236185     -0.389062
Fe            0.142260      0.074436     -0.265850
Fe            0.349223      0.238366      0.490975
Fe           -0.141770      0.259239      0.249667
Fe           -0.355759      0.089783     -0.491561
H            -0.081272      0.053964     -0.461592
H            -0.421138      0.259951      0.278535
H             0.043055      0.218144      0.467965
H             0.437451      0.108832     -0.302169
O            -0.203304      0.083590      0.381217
O            -0.325282      0.249508     -0.334869
O             0.194993      0.233970     -0.393032
O             0.284981      0.078844      0.359609
O            -0.058686      0.075193     -0.362398
O            -0.445113      0.263798      0.379922
O             0.040886      0.230818      0.363982
O             0.453426      0.084398     -0.403144
Fe            0.140916      0.414094     -0.266340
Lu            0.370581     -0.420408      0.470238
Fe           -0.119932     -0.429338      0.276206
Fe           -0.343049      0.418297     -0.483476
H            -0.054721      0.417623     -0.444466
H            -0.366852     -0.400246      0.299941
H             0.124431     -0.406460     -0.496797
H             0.448285      0.430479     -0.297350
O            -0.176307      0.404039      0.401226
O            -0.289477     -0.408060     -0.357043
O             0.179414     -0.398121     -0.408119
O             0.305331      0.396782      0.345122
O            -0.040685      0.415961     -0.339860
O            -0.421190     -0.405502      0.388253
O             0.067777     -0.423051      0.353047
O             0.460679      0.410474     -0.399885
H            -0.278108     -0.327512      0.103406
H            -0.352114     -0.162872     -0.099251
H             0.101790      0.326689      0.105516
H             0.252335      0.374404      0.262155
data_nwchem_pspw

_audit_creation_date   Mon Sep  2 06:42:52 2024
_audit_creation_method    generated by PSPW module of NWChem


_cell_length_a            10.0667
_cell_length_b             9.1552
_cell_length_c             9.2041
_cell_angle_alpha         90.0000
_cell_angle_beta          90.0000
_cell_angle_gamma         90.0000

_symmetry_space_group_name_H-M     P1  

loop_
_atom_site_type_symbol
_atom_site_fract_x
_atom_site_fract_y
_atom_site_fract_z
Fe            0.159555     -0.246040      0.200141
Fe            0.347716     -0.085024     -0.006843
Fe           -0.155604     -0.092942     -0.215862
H            -0.362611     -0.162621      0.145430
H            -0.097122     -0.227263      0.051092
H            -0.428059     -0.087271     -0.214937
H             0.084465     -0.069918     -0.047277
H             0.442613     -0.247483      0.199606
O            -0.191368     -0.251187     -0.083522
O            -0.313625     -0.075246      0.167411
O             0.191519     -0.066453      0.095151
O             0.294311     -0.247699     -0.150423
O            -0.053505     -0.245799      0.146271
O            -0.443213     -0.097499     -0.113379
O             0.047735     -0.084699     -0.143938
O             0.470246     -0.240440      0.098944
Fe            0.152203      0.077038      0.242920
Lu            0.336008      0.260036     -0.029801
Fe           -0.141962      0.247935     -0.213183
Fe           -0.364401      0.082953      0.037615
H            -0.090235      0.026296      0.065224
H            -0.394174      0.239022     -0.209883
H             0.073452      0.266210     -0.043040
H             0.411533      0.101712      0.206772
O            -0.213805      0.078080     -0.096347
O            -0.303756      0.246591      0.162367
O             0.169604      0.263558      0.107652
O             0.302959      0.061481     -0.140317
O            -0.046984      0.053012      0.153782
O            -0.436286      0.234652     -0.115428
O             0.055971      0.255284     -0.147879
O             0.443151      0.092370      0.106060
H             0.096189      0.481698      0.296575
Fe            0.369599     -0.409572     -0.036146
Fe           -0.142538     -0.416599     -0.220186
Fe           -0.358149      0.419726      0.018717
H            -0.082358      0.425560      0.052539
H            -0.416896     -0.414199     -0.205156
H             0.103130     -0.436622     -0.050079
H             0.420380      0.401131      0.190120
O            -0.204068      0.415827     -0.109927
O            -0.277024     -0.438396      0.159244
O             0.218324     -0.403637      0.080975
O             0.307638      0.432612     -0.170507
O            -0.045256      0.410754      0.147612
O            -0.450700     -0.407531     -0.105213
O             0.066381     -0.428162     -0.148329
O             0.453469      0.417301      0.089728
Fe            0.137391     -0.252792     -0.258374
Fe            0.353478     -0.075014      0.488172
Fe           -0.134056     -0.092714      0.301820
Fe           -0.358931     -0.250331     -0.492490
H            -0.089572     -0.246335     -0.448358
H            -0.407896     -0.080200      0.310284
H             0.084651     -0.085381      0.476558
H             0.433732     -0.276612     -0.317090
O            -0.184745     -0.253760      0.407225
O            -0.301962     -0.092968     -0.351139
O             0.184369     -0.092206     -0.397267
O             0.295966     -0.219131      0.343080
O            -0.063149     -0.261014     -0.347589
O            -0.452881     -0.075200      0.402356
O             0.056957     -0.110651      0.376743
O             0.450101     -0.256837     -0.417348
Fe            0.139396      0.071067     -0.267829
Fe            0.366439      0.248172      0.489120
Fe           -0.142399      0.242705      0.281044
Fe           -0.345983      0.072660     -0.466277
H            -0.107677      0.088843     -0.431245
H            -0.420392      0.236197      0.305466
H             0.082168      0.225681      0.442205
H             0.409116      0.075024     -0.286925
O            -0.191224      0.088749      0.418712
O            -0.288024      0.260666     -0.355649
O             0.200895      0.246616     -0.416204
O             0.309318      0.090487      0.358485
O            -0.058783      0.083244     -0.341167
O            -0.432848      0.238264      0.408746
O             0.051776      0.252236      0.346231
O             0.451751      0.072934     -0.383016
Fe            0.145876      0.417391     -0.283321
Lu            0.332146     -0.405594      0.443663
Fe           -0.110973     -0.422795      0.285277
Fe           -0.342896      0.420051     -0.478805
H            -0.070158      0.430364     -0.456505
H            -0.393399     -0.418882      0.286249
H             0.100041     -0.400732     -0.472063
H             0.398872      0.424437     -0.295649
O            -0.190312      0.414062      0.400768
O            -0.306436     -0.420058     -0.344423
O             0.180098     -0.404128     -0.405564
O             0.331661      0.403077      0.318473
O            -0.040729      0.424385     -0.357157
O            -0.435858     -0.415486      0.379279
O             0.094413     -0.427801      0.347201
O             0.446900      0.412067     -0.387281
H            -0.255005     -0.370712      0.082013
H            -0.418377     -0.200196     -0.096697
H             0.103393      0.337175      0.134728
H             0.255441      0.363407      0.268797
data_nwchem_pspw

_audit_creation_date   Mon Sep  2 11:01:45 2024
_audit_creation_method    generated by PSPW module of NWChem


_cell_length_a            10.0667
_cell_length_b             9.1552
_cell_length_c             9.2041
_cell_angle_alpha         90.0000
_cell_angle_beta          90.0000
_cell_angle_gamma         90.0000

_symmetry_space_group_name_H-M     P1  

loop_
_atom_site_type_symbol
_atom_site_fract_x
_atom_site_fract_y
_atom_site_fract_z
Fe            0.137180     -0.253537      0.212680
Fe            0.338812     -0.088382     -0.027090
Fe           -0.157960     -0.087236     -0.244666
H            -0.362243     -0.175786      0.145074
H            -0.108646     -0.250007      0.041871
H            -0.403486     -0.096989     -0.227630
H             0.055099     -0.080344     -0.046348
H             0.394868     -0.225956      0.203331
O            -0.209453     -0.245854     -0.111188
O            -0.311256     -0.087212      0.143679
O             0.190616     -0.074727      0.099815
O             0.305278     -0.241440     -0.156433
O            -0.057506     -0.224614      0.128949
O            -0.434076     -0.099696     -0.125661
O             0.034429     -0.085691     -0.151569
O             0.439450     -0.233782      0.111229
Fe            0.136765      0.090896      0.225337
Lu            0.348863      0.262737     -0.014934
Fe           -0.140033      0.250335     -0.224744
Fe           -0.342321      0.064934      0.018596
H            -0.085899      0.069874      0.042355
H            -0.395032      0.235853     -0.211960
H             0.058284      0.219330     -0.040872
H             0.406174      0.060668      0.191218
O            -0.193237      0.070373     -0.103158
O            -0.313554      0.250506      0.148275
O             0.172641      0.280648      0.103011
O             0.304492      0.073033     -0.150208
O            -0.058970      0.096048      0.140262
O            -0.432062      0.243626     -0.114462
O             0.044899      0.232928     -0.144903
O             0.449497      0.068804      0.098960
H             0.098346      0.480044      0.343719
Fe            0.353535     -0.406297     -0.007945
Fe           -0.157857     -0.408541     -0.230965
Fe           -0.344339      0.407856      0.008044
H            -0.097701      0.435014      0.045190
H            -0.389012     -0.411777     -0.188187
H             0.101835     -0.405096     -0.046037
H             0.469246      0.479025      0.215867
O            -0.184775      0.410939     -0.109604
O            -0.289186     -0.402412      0.146442
O             0.187454     -0.400942      0.084083
O             0.308181      0.447606     -0.154913
O            -0.048903      0.425316      0.135523
O            -0.429738     -0.417088     -0.093028
O             0.055494     -0.411966     -0.140282
O             0.455503      0.420099      0.131581
Fe            0.138583     -0.244907     -0.264173
Fe            0.349542     -0.069477      0.485267
Fe           -0.156270     -0.076424      0.270362
Fe           -0.357205     -0.261185     -0.487055
H            -0.096295     -0.246777     -0.452669
H            -0.473351     -0.065889      0.298742
H             0.091973     -0.078060      0.423857
H             0.416580     -0.256237     -0.291709
O            -0.195688     -0.249878      0.400121
O            -0.314552     -0.087458     -0.355078
O             0.191754     -0.074002     -0.393628
O             0.277925     -0.236530      0.374622
O            -0.059169     -0.247858     -0.354245
O            -0.458091     -0.072499      0.398892
O             0.045319     -0.099019      0.335248
O             0.451611     -0.249061     -0.390514
Fe            0.145837      0.079534     -0.263191
Fe            0.351920      0.236023      0.495237
Fe           -0.146268      0.257588      0.262104
Fe           -0.359201      0.085714     -0.478630
H            -0.061482      0.104925     -0.460612
H            -0.419752      0.272716      0.300131
H             0.083109      0.257688      0.456740
H             0.425742      0.080896     -0.283478
O            -0.216306      0.080109      0.387208
O            -0.299972      0.237734     -0.344847
O             0.206838      0.243604     -0.387787
O             0.297795      0.089463      0.350532
O            -0.052855      0.081045     -0.359288
O            -0.455350      0.269944      0.397391
O             0.037964      0.213762      0.376768
O             0.455305      0.077980     -0.384270
Fe            0.143967      0.405763     -0.266663
Lu            0.375889     -0.422089      0.467652
Fe           -0.124877     -0.415566      0.280240
Fe           -0.335138      0.399768     -0.470307
H            -0.074995      0.407422     -0.449592
H            -0.398429     -0.395937      0.265579
H             0.105710     -0.406179     -0.476779
H             0.450727      0.436938     -0.285743
O            -0.198110      0.403805      0.395345
O            -0.302675     -0.430858     -0.354219
O             0.179010     -0.402074     -0.402423
O             0.273508      0.395074      0.365394
O            -0.053044      0.420214     -0.348656
O            -0.437549     -0.420477      0.362800
O             0.055692     -0.430763      0.373475
O             0.462312      0.407957     -0.385087
H            -0.286824     -0.345134      0.058869
H            -0.429030     -0.201920     -0.096893
H             0.093181      0.348209      0.118785
H             0.293127      0.392295      0.264072
data_nwchem_pspw

_audit_creation_date   Mon Sep  2 15:06:03 2024
_audit_creation_method    generated by PSPW module of NWChem


_cell_length_a            10.0667
_cell_length_b             9.1552
_cell_length_c             9.2041
_cell_angle_alpha         90.0000
_cell_angle_beta          90.0000
_cell_angle_gamma         90.0000

_symmetry_space_group_name_H-M     P1  

loop_
_atom_site_type_symbol
_atom_site_fract_x
_atom_site_fract_y
_atom_site_fract_z
Fe            0.156495     -0.260361      0.214792
Fe            0.357977     -0.100099     -0.033517
Fe           -0.145090     -0.076771     -0.223904
H            -0.390862     -0.147824      0.138111
H            -0.083129     -0.233666      0.050446
H            -0.423059     -0.087538     -0.196426
H             0.107451     -0.082606     -0.035525
H             0.388104     -0.230429      0.182877
O            -0.211184     -0.230526     -0.096393
O            -0.323997     -0.077945      0.168452
O             0.194991     -0.066872      0.092312
O             0.306427     -0.256775     -0.160640
O            -0.043217     -0.259021      0.145289
O            -0.441045     -0.118452     -0.100535
O             0.062689     -0.086190     -0.135550
O             0.441857     -0.244768      0.094130
Fe            0.139056      0.083797      0.237155
Lu            0.334120      0.252824     -0.024175
Fe           -0.136881      0.248971     -0.249417
Fe           -0.347366      0.086392      0.026790
H            -0.107176      0.079361      0.038747
H            -0.403483      0.233808     -0.207677
H             0.041961      0.220730     -0.038860
H             0.412079      0.067593      0.191594
O            -0.194246      0.087029     -0.104790
O            -0.284573      0.246071      0.144401
O             0.178198      0.260448      0.120284
O             0.305137      0.057485     -0.159950
O            -0.059872      0.074948      0.132307
O            -0.446701      0.220842     -0.114371
O             0.052721      0.228918     -0.140711
O             0.446455      0.082777      0.095701
H             0.099772      0.495988      0.333936
Fe            0.363397     -0.409200     -0.022863
Fe           -0.150919     -0.404510     -0.216590
Fe           -0.348253      0.409988      0.013932
H            -0.091291      0.432799      0.055360
H            -0.427820     -0.387495     -0.197674
H             0.074432     -0.428551     -0.039900
H             0.439875      0.442866      0.205243
O            -0.201200      0.416695     -0.104333
O            -0.295914     -0.422246      0.167671
O             0.211850     -0.418815      0.094637
O             0.309203      0.440898     -0.169179
O            -0.046146      0.415364      0.146371
O            -0.443118     -0.416585     -0.099106
O             0.043426     -0.410031     -0.136156
O             0.458225      0.424313      0.105455
Fe            0.140310     -0.246193     -0.260543
Fe            0.350121     -0.075184      0.470566
Fe           -0.135667     -0.091324      0.291233
Fe           -0.350205     -0.250717     -0.477894
H            -0.065303     -0.266947     -0.455343
H            -0.419125     -0.083689      0.313256
H             0.099470     -0.078120      0.448033
H             0.410193     -0.239352     -0.285942
O            -0.182011     -0.259412      0.418230
O            -0.292242     -0.078581     -0.346049
O             0.194434     -0.100631     -0.409791
O             0.310468     -0.224131      0.329059
O            -0.048189     -0.261984     -0.351278
O            -0.437286     -0.081754      0.415897
O             0.051237     -0.066863      0.354463
O             0.450551     -0.239977     -0.382432
Fe            0.146505      0.072163     -0.276089
Fe            0.346727      0.250912      0.491346
Fe           -0.135951      0.239181      0.271391
Fe           -0.348669      0.085591     -0.465084
H            -0.091840      0.071945     -0.456742
H            -0.432270      0.238435      0.304354
H             0.064556      0.226325      0.470362
H             0.427486      0.060855     -0.294017
O            -0.188921      0.076735      0.401293
O            -0.293523      0.254765     -0.358308
O             0.190283      0.259239     -0.395869
O             0.305907      0.094728      0.348391
O            -0.046817      0.078703     -0.361497
O            -0.448619      0.245227      0.407555
O             0.047005      0.255199      0.372165
O             0.451783      0.083861     -0.392021
Fe            0.143279      0.418569     -0.269485
Lu            0.347751     -0.407924      0.463200
Fe           -0.132511     -0.437410      0.273082
Fe           -0.363273      0.421008     -0.474179
H            -0.071323      0.422772     -0.455224
H            -0.403673     -0.408312      0.287651
H             0.116347     -0.400649     -0.495727
H             0.427008      0.426316     -0.288388
O            -0.207349      0.416881      0.396650
O            -0.303113     -0.418914     -0.359017
O             0.181326     -0.407107     -0.403876
O             0.303113      0.400210      0.333359
O            -0.046039      0.427805     -0.353307
O            -0.450535     -0.425172      0.381275
O             0.071581     -0.410768      0.367583
O             0.461284      0.425104     -0.387799
H            -0.287133     -0.350827      0.090945
H            -0.361646     -0.184702     -0.077350
H             0.106437      0.335453      0.126996
H             0.236837      0.371667      0.264005
data_nwchem_pspw

_audit_creation_date   Mon Sep  2 19:10:47 2024
_audit_creation_method    generated by PSPW module of NWChem


_cell_length_a            10.0667
_cell_length_b             9.1552
_cell_length_c             9.2041
_cell_angle_alpha         90.0000
_cell_angle_beta          90.0000
_cell_angle_gamma         90.0000

_symmetry_space_group_name_H-M     P1  

loop_
_atom_site_type_symbol
_atom_site_fract_x
_atom_site_fract_y
_atom_site_fract_z
Fe            0.135113     -0.250255      0.216514
Fe            0.332390     -0.079661      0.002224
Fe           -0.144700     -0.082254     -0.213543
H            -0.379986     -0.136784      0.140736
H            -0.110259     -0.258933     -0.012929
H            -0.398490     -0.086316     -0.222389
H             0.086623     -0.062252     -0.048764
H             0.421930     -0.242639      0.199063
O            -0.183161     -0.269007     -0.079077
O            -0.299606     -0.079384      0.152758
O             0.167173     -0.069429      0.092129
O             0.292944     -0.239807     -0.127631
O            -0.047810     -0.256198      0.175890
O            -0.449426     -0.087783     -0.130670
O             0.043382     -0.073670     -0.147923
O             0.454018     -0.249732      0.100376
Fe            0.139702      0.087626      0.250677
Lu            0.354730      0.266202     -0.033083
Fe           -0.139712      0.248019     -0.248406
Fe           -0.336121      0.101781      0.035744
H            -0.095936      0.058455      0.045144
H            -0.399310      0.256379     -0.205277
H             0.027558      0.264742     -0.048108
H             0.432152      0.066553      0.205830
O            -0.191007      0.081736     -0.108699
O            -0.300257      0.268543      0.152653
O             0.182503      0.269188      0.114476
O             0.306934      0.076067     -0.151387
O            -0.071161      0.062848      0.148498
O            -0.437479      0.253454     -0.105382
O             0.044249      0.233951     -0.145228
O             0.452834      0.083554      0.103195
H             0.069262      0.477660      0.318464
Fe            0.357290     -0.406552     -0.017882
Fe           -0.158055     -0.424263     -0.227700
Fe           -0.352186      0.420411     -0.001452
H            -0.093136      0.424340      0.046862
H            -0.415126     -0.390006     -0.222164
H             0.096931     -0.412886     -0.041271
H             0.469608      0.426945      0.209785
O            -0.188939      0.411752     -0.108794
O            -0.301693     -0.412921      0.140516
O             0.208374     -0.401443      0.109192
O             0.305216      0.444758     -0.162967
O            -0.044745      0.405845      0.137170
O            -0.448377     -0.405409     -0.126063
O             0.053091     -0.415862     -0.136190
O             0.466381      0.431111      0.105604
Fe            0.135232     -0.256238     -0.264628
Fe            0.358311     -0.089122      0.483312
Fe           -0.141286     -0.093397      0.284632
Fe           -0.355947     -0.257731     -0.482873
H            -0.099198     -0.262189     -0.453187
H            -0.411543     -0.082373      0.321612
H             0.060550     -0.097709      0.469733
H             0.420599     -0.229069     -0.297927
O            -0.206577     -0.259166      0.398372
O            -0.288502     -0.084444     -0.353463
O             0.206482     -0.103507     -0.399006
O             0.304609     -0.226050      0.336710
O            -0.057234     -0.251207     -0.358599
O            -0.443080     -0.071323      0.422790
O             0.050149     -0.088661      0.365949
O             0.461428     -0.259240     -0.387365
Fe            0.144336      0.069246     -0.268598
Fe            0.349719      0.234157     -0.496095
Fe           -0.151040      0.247632      0.274932
Fe           -0.350071      0.086727     -0.459840
H            -0.081172      0.056093     -0.468935
H            -0.446713      0.240807      0.296075
H             0.052904      0.252706      0.450305
H             0.418158      0.090420     -0.276385
O            -0.197456      0.086631      0.411320
O            -0.307858      0.255881     -0.334598
O             0.191391      0.245862     -0.381238
O             0.303880      0.077623      0.351983
O            -0.045475      0.075666     -0.372971
O            -0.448888      0.236290      0.398410
O             0.041779      0.248816      0.346865
O             0.456090      0.098622     -0.374569
Fe            0.140686      0.413123     -0.261625
Lu            0.355984     -0.417328      0.447040
Fe           -0.133100     -0.428779      0.265367
Fe           -0.355423      0.413010     -0.477519
H            -0.094532      0.421089     -0.458176
H            -0.404307     -0.402697      0.278090
H             0.115880     -0.436302     -0.496388
H             0.412189      0.437644     -0.298232
O            -0.185723      0.404970      0.413263
O            -0.303324     -0.431061     -0.355853
O             0.183962     -0.420819     -0.409444
O             0.305771      0.390117      0.346817
O            -0.053521      0.422017     -0.358680
O            -0.438160     -0.418561      0.376176
O             0.060759     -0.429365      0.366495
O             0.444214      0.422661     -0.397731
H            -0.281376     -0.327461      0.082756
H            -0.441451     -0.187992     -0.101154
H             0.105774      0.334493      0.115713
H             0.269466      0.347101      0.260117
data_nwchem_pspw

_audit_creation_date   Mon Sep  2 22:59:31 2024
_audit_creation_method    generated by PSPW module of NWChem


_cell_length_a            10.0667
_cell_length_b             9.1552
_cell_length_c             9.2041
_cell_angle_alpha         90.0000
_cell_angle_beta          90.0000
_cell_angle_gamma         90.0000

_symmetry_space_group_name_H-M     P1  

loop_
_atom_site_type_symbol
_atom_site_fract_x
_atom_site_fract_y
_atom_site_fract_z
Fe            0.141924     -0.264394      0.217626
Fe            0.335205     -0.097118     -0.013729
Fe           -0.151713     -0.085722     -0.232637
H            -0.388596     -0.142600      0.116841
H            -0.136007     -0.251304     -0.001121
H            -0.454233     -0.041548     -0.225421
H             0.069401     -0.081739     -0.053805
H             0.425658     -0.258758      0.180280
O            -0.191164     -0.246679     -0.091801
O            -0.308935     -0.085252      0.135324
O             0.185691     -0.078275      0.113028
O             0.300688     -0.246121     -0.154543
O            -0.057961     -0.256891      0.138639
O            -0.457761     -0.072223     -0.124430
O             0.051487     -0.071238     -0.156464
O             0.464449     -0.243723      0.085890
Fe            0.137211      0.083894      0.243205
Lu            0.347337      0.241759     -0.017533
Fe           -0.146647      0.238986     -0.235117
Fe           -0.343254      0.089098      0.022681
H            -0.078424      0.059039      0.038109
H            -0.410476      0.265091     -0.202554
H             0.053839      0.231039     -0.042667
H             0.426030      0.063348      0.211050
O            -0.191286      0.079211     -0.103733
O            -0.300003      0.246245      0.148429
O             0.174352      0.285940      0.106620
O             0.307019      0.065946     -0.156239
O            -0.056183      0.061875      0.140732
O            -0.456524      0.243572     -0.112050
O             0.053399      0.239575     -0.147007
O             0.445764      0.070116      0.109361
H             0.108746      0.493602      0.343160
Fe            0.369099     -0.406430     -0.021510
Fe           -0.161841     -0.413955     -0.224325
Fe           -0.350804      0.416009      0.007885
H            -0.071330      0.454692      0.059838
H            -0.427948     -0.412830     -0.220575
H             0.089640     -0.406099     -0.044841
H             0.456745      0.485865      0.186754
O            -0.195466      0.425903     -0.108624
O            -0.298430     -0.429518      0.149840
O             0.223968     -0.398678      0.104210
O             0.296206      0.449797     -0.141961
O            -0.049570      0.426253      0.158035
O            -0.443235     -0.428404     -0.118554
O             0.049723     -0.411196     -0.140547
O             0.460458      0.421340      0.107308
Fe            0.140087     -0.244687     -0.266875
Fe            0.356110     -0.078091      0.477197
Fe           -0.153498     -0.089099      0.261443
Fe           -0.347591     -0.244858     -0.480274
H            -0.105599     -0.271910     -0.448117
H            -0.436468     -0.102077      0.297888
H             0.073488     -0.111101      0.445358
H             0.433581     -0.236859     -0.286622
O            -0.189652     -0.244577      0.407958
O            -0.311547     -0.063613     -0.341592
O             0.203100     -0.096502     -0.403293
O             0.304067     -0.235857      0.342747
O            -0.065765     -0.248052     -0.355916
O            -0.451645     -0.095271      0.399968
O             0.048714     -0.086947      0.348491
O             0.459089     -0.252633     -0.387156
Fe            0.149117      0.075511     -0.292934
Fe            0.348013      0.236733      0.491330
Fe           -0.144086      0.255674      0.276771
Fe           -0.352074      0.084732     -0.479068
H            -0.072126      0.085499     -0.483371
H            -0.420042      0.231905      0.297506
H             0.082225      0.268563      0.457540
H             0.400526      0.068516     -0.284369
O            -0.215440      0.083427      0.386459
O            -0.306089      0.265417     -0.355310
O             0.197420      0.255279     -0.392103
O             0.294258      0.093233      0.346973
O            -0.045745      0.069237     -0.383175
O            -0.455205      0.227009      0.393920
O             0.036769      0.215806      0.382284
O             0.439585      0.071138     -0.386451
Fe            0.135589      0.424317     -0.250981
Lu            0.370845     -0.410243      0.467528
Fe           -0.122509     -0.408492      0.270606
Fe           -0.356029      0.429120     -0.465651
H            -0.087822      0.418845     -0.449301
H            -0.383924     -0.434314      0.284766
H             0.112896     -0.420614     -0.494346
H             0.416873      0.420275     -0.284024
O            -0.200963      0.411281      0.412584
O            -0.303910     -0.409531     -0.356339
O             0.174711     -0.414597     -0.412091
O             0.288386      0.398833      0.363655
O            -0.060388      0.427284     -0.347450
O            -0.427993     -0.416389      0.378707
O             0.063286     -0.416202      0.362389
O             0.454618      0.412849     -0.379599
H            -0.302625     -0.340908      0.095628
H            -0.405704     -0.159927     -0.124111
H             0.100563      0.341654      0.150662
H             0.278520      0.393235      0.261822
data_nwchem_pspw

_audit_creation_date   Tue Sep  3 02:59:44 2024
_audit_creation_method    generated by PSPW module of NWChem


_cell_length_a            10.0667
_cell_length_b             9.1552
_cell_length_c             9.2041
_cell_angle_alpha         90.0000
_cell_angle_beta          90.0000
_cell_angle_gamma         90.0000

_symmetry_space_group_name_H-M     P1  

loop_
_atom_site_type_symbol
_atom_site_fract_x
_atom_site_fract_y
_atom_site_fract_z
Fe            0.133431     -0.259058      0.217769
Fe            0.356805     -0.076595     -0.011427
Fe           -0.142255     -0.088843     -0.226993
H            -0.389536     -0.148686      0.154572
H            -0.129547     -0.243137      0.003612
H            -0.424508     -0.089360     -0.210343
H             0.092576     -0.054819     -0.048678
H             0.432729     -0.225898      0.208517
O            -0.188375     -0.247176     -0.081969
O            -0.323313     -0.073714      0.178122
O             0.181588     -0.054921      0.091975
O             0.310209     -0.243468     -0.147129
O            -0.050205     -0.247066      0.158963
O            -0.433259     -0.105817     -0.105427
O             0.052253     -0.079465     -0.146442
O             0.472881     -0.241025      0.113053
Fe            0.148574      0.077060      0.256289
Lu            0.346318      0.261710     -0.039329
Fe           -0.142720      0.236922     -0.230011
Fe           -0.361873      0.086833      0.036230
H            -0.089747      0.088061      0.043476
H            -0.402350      0.226779     -0.198087
H             0.074383      0.254429     -0.044980
H             0.410701      0.078120      0.209303
O            -0.216338      0.080822     -0.098819
O            -0.298174      0.249875      0.158145
O             0.176277      0.252883      0.108659
O             0.294556      0.068991     -0.159119
O            -0.070563      0.086532      0.145885
O            -0.455156      0.240634     -0.111929
O             0.054913      0.242018     -0.145913
O             0.445263      0.098406      0.111743
H             0.069574      0.481309      0.350312
Fe            0.374152     -0.394706     -0.012724
Fe           -0.161897     -0.434613     -0.225853
Fe           -0.344575      0.412340      0.016765
H            -0.066656      0.446816      0.054619
H            -0.405792     -0.400466     -0.197077
H             0.103280     -0.411801     -0.040580
H             0.425235      0.412724      0.201001
O            -0.189855      0.402454     -0.092434
O            -0.300482     -0.417068      0.162773
O             0.221466     -0.393870      0.115070
O             0.308713      0.450762     -0.165100
O            -0.036340      0.427523      0.153282
O            -0.423319     -0.410034     -0.094793
O             0.054966     -0.413066     -0.132031
O             0.457314      0.422021      0.101944
Fe            0.151384     -0.242679     -0.251530
Fe            0.363130     -0.082247      0.482681
Fe           -0.133725     -0.083105      0.265555
Fe           -0.357614     -0.261844     -0.467316
H            -0.094687     -0.272457     -0.438176
H            -0.396197     -0.079313      0.325549
H             0.092946     -0.094401      0.462892
H             0.395276     -0.256729     -0.281124
O            -0.200499     -0.243938      0.400815
O            -0.299650     -0.085462     -0.352032
O             0.194044     -0.083976     -0.404239
O             0.310121     -0.218287      0.333919
O            -0.069856     -0.267629     -0.335923
O            -0.440759     -0.094386      0.419206
O             0.053710     -0.101349      0.364724
O             0.428629     -0.249377     -0.380624
Fe            0.143920      0.085454     -0.295075
Fe            0.359808      0.230937      0.489845
Fe           -0.139614      0.253365      0.280277
Fe           -0.344987      0.076802     -0.471553
H            -0.098915      0.090845     -0.467490
H            -0.417650      0.226194      0.299091
H             0.060017      0.238807      0.467285
H             0.396021      0.102337     -0.300331
O            -0.193173      0.085820      0.399779
O            -0.291057      0.249353     -0.354440
O             0.199977      0.255472     -0.407697
O             0.311209      0.073133      0.347333
O            -0.059498      0.088793     -0.367341
O            -0.436575      0.234446      0.401879
O             0.051322      0.249478      0.363829
O             0.454556      0.076268     -0.381843
Fe            0.143764      0.422961     -0.267066
Lu            0.336574     -0.414066      0.437189
Fe           -0.125224     -0.418890      0.276769
Fe           -0.356895      0.410022     -0.479185
H            -0.077768      0.426366     -0.437845
H            -0.403877     -0.386354      0.312387
H             0.100551     -0.399106     -0.474946
H             0.445940      0.426427     -0.297604
O            -0.202620      0.420657      0.403533
O            -0.318574     -0.441091     -0.340247
O             0.170847     -0.409380     -0.394139
O             0.316928      0.379138      0.333600
O            -0.050457      0.419793     -0.337163
O            -0.446554     -0.397933      0.408171
O             0.053339     -0.422904      0.390245
O             0.457613      0.395986     -0.396782
H            -0.303764     -0.345117      0.085739
H            -0.407435     -0.205375     -0.084674
H             0.092732      0.317430      0.129515
H             0.264204      0.338301      0.253489
data_nwchem_pspw

_audit_creation_date   Tue Sep  3 07:02:14 2024
_audit_creation_method    generated by PSPW module of NWChem


_cell_length_a            10.0667
_cell_length_b             9.1552
_cell_length_c             9.2041
_cell_angle_alpha         90.0000
_cell_angle_beta          90.0000
_cell_angle_gamma         90.0000

_symmetry_space_group_name_H-M     P1  

loop_
_atom_site_type_symbol
_atom_site_fract_x
_atom_site_fract_y
_atom_site_fract_z
Fe            0.136618     -0.260030      0.203532
Fe            0.343694     -0.086014     -0.004880
Fe           -0.147553     -0.078858     -0.239831
H            -0.374000     -0.178679      0.142817
H            -0.135313     -0.254539     -0.029015
H            -0.425610     -0.060137     -0.216161
H             0.077879     -0.086422     -0.044950
H             0.385075     -0.243570      0.215200
O            -0.207409     -0.245734     -0.100967
O            -0.318268     -0.092008      0.144097
O             0.188662     -0.075454      0.101499
O             0.297848     -0.239993     -0.155848
O            -0.058402     -0.245148      0.135206
O            -0.447212     -0.084485     -0.115369
O             0.046818     -0.070729     -0.143837
O             0.434963     -0.248592      0.121614
Fe            0.133244      0.075091      0.255828
Lu            0.353226      0.245059      0.003935
Fe           -0.160056      0.251635     -0.235355
Fe           -0.344587      0.081412      0.029925
H            -0.093693      0.058257      0.035493
H            -0.416190      0.243915     -0.202551
H             0.077142      0.231467     -0.044430
H             0.439026      0.050880      0.215062
O            -0.201106      0.088218     -0.103249
O            -0.309975      0.259165      0.156083
O             0.183116      0.261810      0.127468
O             0.311879      0.071169     -0.151023
O            -0.068260      0.066852      0.136796
O            -0.442187      0.242135     -0.100811
O             0.052043      0.251556     -0.144044
O             0.459945      0.072817      0.116775
H             0.098194     -0.497433      0.299100
Fe            0.349983     -0.406369     -0.021105
Fe           -0.143603     -0.422292     -0.237144
Fe           -0.356092      0.416015      0.008587
H            -0.094045      0.398636      0.034618
H            -0.446362     -0.423337     -0.227318
H             0.076488     -0.428206     -0.057709
H             0.426531      0.441193      0.204747
O            -0.200528      0.403802     -0.108446
O            -0.287064     -0.417667      0.135150
O             0.198107     -0.415005      0.096364
O             0.282399      0.414899     -0.144758
O            -0.051274      0.397265      0.128739
O            -0.454771     -0.408011     -0.124820
O             0.042652     -0.404115     -0.155427
O             0.460736      0.445355      0.105003
Fe            0.137475     -0.243755     -0.265290
Fe            0.352308     -0.070471      0.488092
Fe           -0.145928     -0.094460      0.269718
Fe           -0.345551     -0.245645     -0.479333
H            -0.086496     -0.247447     -0.463568
H            -0.421424     -0.086477      0.309404
H             0.072050     -0.095451      0.449955
H             0.403797     -0.258763     -0.286392
O            -0.199414     -0.249792      0.398517
O            -0.305035     -0.079120     -0.344195
O             0.192475     -0.078640     -0.393536
O             0.293961     -0.229939      0.346634
O            -0.057354     -0.244728     -0.362892
O            -0.445780     -0.094750      0.410126
O             0.046414     -0.086694      0.349622
O             0.441319     -0.242233     -0.384003
Fe            0.149808      0.081397     -0.266091
Fe            0.351444      0.251057      0.490699
Fe           -0.141467      0.245675      0.270550
Fe           -0.356610      0.088491     -0.471993
H            -0.071465      0.063617     -0.454364
H            -0.436073      0.248564      0.285219
H             0.065276      0.255452      0.458511
H             0.439040      0.105493     -0.298975
O            -0.204231      0.078841      0.392746
O            -0.309178      0.252686     -0.358013
O             0.195723      0.253552     -0.404711
O             0.296039      0.091463      0.362864
O            -0.050913      0.087124     -0.353668
O            -0.452106      0.240543      0.389188
O             0.037806      0.234025      0.360926
O             0.455287      0.088107     -0.401702
Fe            0.145608      0.411822     -0.285274
Lu            0.376472     -0.410788      0.459427
Fe           -0.139099     -0.416739      0.271450
Fe           -0.352020      0.411769     -0.492827
H            -0.095928      0.397873     -0.451729
H            -0.386887     -0.407346      0.279925
H             0.129132     -0.393552     -0.496547
H             0.421920      0.401682     -0.295811
O            -0.196778      0.405047      0.390755
O            -0.303637     -0.420091     -0.357928
O             0.193999     -0.404756     -0.409670
O             0.304279      0.415548      0.329443
O            -0.054226      0.407174     -0.357395
O            -0.434883     -0.404740      0.372734
O             0.062372     -0.414974      0.348840
O             0.451034      0.402453     -0.395855
H            -0.291718     -0.340728      0.064486
H            -0.427018     -0.185118     -0.086330
H             0.105950      0.335725      0.135450
H             0.267257      0.355556      0.253541
data_nwchem_pspw

_audit_creation_date   Tue Sep  3 11:02:20 2024
_audit_creation_method    generated by PSPW module of NWChem


_cell_length_a            10.0667
_cell_length_b             9.1552
_cell_length_c             9.2041
_cell_angle_alpha         90.0000
_cell_angle_beta          90.0000
_cell_angle_gamma         90.0000

_symmetry_space_group_name_H-M     P1  

loop_
_atom_site_type_symbol
_atom_site_fract_x
_atom_site_fract_y
_atom_site_fract_z
Fe            0.145958     -0.240796      0.192649
Fe            0.358996     -0.087695     -0.004875
Fe           -0.146738     -0.077509     -0.233831
H            -0.397155     -0.168679      0.148101
H            -0.120012     -0.241666      0.003217
H            -0.424290     -0.092713     -0.217634
H             0.076715     -0.083097     -0.037137
H             0.407860     -0.268904      0.200806
O            -0.179096     -0.242270     -0.083001
O            -0.324028     -0.099226      0.164990
O             0.203470     -0.057450      0.106740
O             0.309266     -0.249963     -0.147316
O            -0.046093     -0.261505      0.142779
O            -0.430253     -0.104101     -0.111643
O             0.046344     -0.093682     -0.136272
O             0.444222     -0.241151      0.107029
Fe            0.150938      0.089515      0.256513
Lu            0.333332      0.261648     -0.048550
Fe           -0.153475      0.259886     -0.221359
Fe           -0.339999      0.091077      0.029872
H            -0.081376      0.048999      0.066228
H            -0.406647      0.263142     -0.194465
H             0.042436      0.191206     -0.035747
H             0.450492      0.090829      0.195517
O            -0.182115      0.085416     -0.092249
O            -0.288387      0.254391      0.153019
O             0.187694      0.263982      0.121226
O             0.316356      0.057269     -0.155288
O            -0.047908      0.067316      0.162909
O            -0.445821      0.247185     -0.101056
O             0.061933      0.232997     -0.127872
O             0.461902      0.096094      0.092326
H             0.097703      0.482496      0.335989
Fe            0.360684     -0.409327     -0.017545
Fe           -0.152206     -0.414833     -0.225713
Fe           -0.359109      0.420016      0.026127
H            -0.117154      0.400292      0.083446
H            -0.420211     -0.416621     -0.213463
H             0.080653     -0.457540     -0.033307
H             0.423626      0.412846      0.198912
O            -0.207877      0.420264     -0.096285
O            -0.292900     -0.409126      0.139968
O             0.200097     -0.397873      0.082655
O             0.307399      0.449286     -0.173224
O            -0.052346      0.401911      0.160461
O            -0.451222     -0.396997     -0.115676
O             0.047709     -0.425313     -0.124141
O             0.455577      0.420511      0.096369
Fe            0.149194     -0.262904     -0.242636
Fe            0.351642     -0.090015      0.468982
Fe           -0.145055     -0.107719      0.271729
Fe           -0.349365     -0.257133     -0.481472
H            -0.054873     -0.255091     -0.444377
H            -0.405701     -0.075753      0.302990
H             0.090353     -0.113262      0.452394
H             0.397007     -0.236704     -0.307034
O            -0.191199     -0.271185      0.400144
O            -0.299675     -0.098462     -0.347854
O             0.208443     -0.097881     -0.392393
O             0.299173     -0.238971      0.320709
O            -0.052852     -0.239481     -0.341641
O            -0.436728     -0.080267      0.404018
O             0.055617     -0.092269      0.355951
O             0.440796     -0.248733     -0.401579
Fe            0.143820      0.071531     -0.274970
Fe            0.350012      0.252712      0.491434
Fe           -0.143523      0.235463      0.290883
Fe           -0.347943      0.088242     -0.476803
H            -0.071400      0.065360     -0.449524
H            -0.406634      0.259170      0.297044
H             0.054219      0.250918      0.486017
H             0.445054      0.095111     -0.295334
O            -0.204081      0.060443      0.400543
O            -0.297457      0.258192     -0.349473
O             0.194909      0.247070     -0.384688
O             0.304802      0.088162      0.366958
O            -0.050270      0.082696     -0.349012
O            -0.438327      0.260710      0.396911
O             0.031556      0.212776      0.393087
O             0.461597      0.083499     -0.398616
Fe            0.139314      0.420430     -0.271956
Lu            0.341434     -0.415079      0.468189
Fe           -0.121032     -0.416402      0.271462
Fe           -0.343776      0.421491     -0.488597
H            -0.083638      0.402547     -0.448509
H            -0.416094     -0.432381      0.280964
H             0.110770     -0.411658      0.473177
H             0.419881      0.422295     -0.297349
O            -0.176544      0.418176      0.413720
O            -0.305494     -0.415037     -0.354644
O             0.175457     -0.417596     -0.412372
O             0.322382      0.406737      0.316190
O            -0.050501      0.414227     -0.345108
O            -0.431374     -0.409029      0.381155
O             0.075228     -0.418423      0.356471
O             0.446453      0.405481     -0.398195
H            -0.263293     -0.341773      0.065442
H            -0.398283     -0.201460     -0.095870
H             0.100623      0.320314      0.113248
H             0.252445      0.363590      0.249747
data_nwchem_pspw

_audit_creation_date   Tue Sep  3 15:13:22 2024
_audit_creation_method    generated by PSPW module of NWChem


_cell_length_a            10.0667
_cell_length_b             9.1552
_cell_length_c             9.2041
_cell_angle_alpha         90.0000
_cell_angle_beta          90.0000
_cell_angle_gamma         90.0000

_symmetry_space_group_name_H-M     P1  

loop_
_atom_site_type_symbol
_atom_site_fract_x
_atom_site_fract_y
_atom_site_fract_z
Fe            0.132924     -0.253831      0.210071
Fe            0.346582     -0.080252     -0.023825
Fe           -0.143756     -0.086375     -0.241393
H            -0.386088     -0.164464      0.151067
H            -0.108983     -0.248359     -0.013447
H            -0.428083     -0.121201     -0.223902
H             0.080936     -0.072861     -0.034800
H             0.375309     -0.236673      0.194727
O            -0.179664     -0.252549     -0.088924
O            -0.308634     -0.099388      0.151690
O             0.198395     -0.070576      0.105260
O             0.306621     -0.248999     -0.134408
O            -0.054809     -0.248256      0.143091
O            -0.452373     -0.113573     -0.125496
O             0.051117     -0.074141     -0.135613
O             0.437659     -0.243239      0.114794
Fe            0.135920      0.084982      0.251889
Lu            0.343552      0.256493      0.001490
Fe           -0.145935      0.240787     -0.223804
Fe           -0.350944      0.079853      0.020521
H            -0.074214      0.062072      0.055290
H            -0.424586      0.245040     -0.210695
H             0.079776      0.258720     -0.053986
H             0.416454      0.076340      0.206465
O            -0.194440      0.073523     -0.092079
O            -0.296342      0.241907      0.137018
O             0.155896      0.257162      0.103750
O             0.295959      0.079892     -0.159291
O            -0.062716      0.081125      0.159096
O            -0.448226      0.251656     -0.109384
O             0.050648      0.242875     -0.154670
O             0.457077      0.080998      0.110837
H             0.074547      0.477272      0.350441
Fe            0.355852     -0.407475     -0.020345
Fe           -0.149857     -0.414089     -0.222137
Fe           -0.345870      0.431096      0.013226
H            -0.084233      0.417916      0.054375
H            -0.441543     -0.441556     -0.212296
H             0.079245     -0.406248     -0.033977
H             0.430181      0.418116      0.204910
O            -0.189758      0.407061     -0.101841
O            -0.284781     -0.423708      0.148081
O             0.206887     -0.395305      0.103526
O             0.309817      0.429318     -0.151864
O            -0.045312      0.398003      0.149430
O            -0.450025     -0.417775     -0.111467
O             0.051484     -0.404210     -0.136493
O             0.466908      0.430305      0.109389
Fe            0.153665     -0.245896     -0.258772
Fe            0.345567     -0.072687      0.473519
Fe           -0.143802     -0.090274      0.268508
Fe           -0.345858     -0.240720     -0.467097
H            -0.087520     -0.236513     -0.450631
H            -0.449515     -0.082570      0.283894
H             0.088374     -0.064309      0.440659
H             0.413560     -0.220430     -0.306602
O            -0.190478     -0.246350      0.402134
O            -0.307480     -0.076917     -0.339499
O             0.185715     -0.082631     -0.405581
O             0.281200     -0.224327      0.362270
O            -0.048012     -0.232195     -0.353549
O            -0.455315     -0.081779      0.389433
O             0.049911     -0.092667      0.348581
O             0.438709     -0.257412     -0.399739
Fe            0.133056      0.074899     -0.278625
Fe            0.356439      0.236383      0.486436
Fe           -0.149545      0.244227      0.267423
Fe           -0.366495      0.082270     -0.492686
H            -0.100354      0.062993     -0.454384
H            -0.405238      0.251240      0.286279
H             0.059590      0.222628      0.468617
H             0.415686      0.079820     -0.288713
O            -0.215286      0.062562      0.393894
O            -0.290182      0.242877     -0.364973
O             0.207828      0.247506     -0.402098
O             0.294405      0.074570      0.347073
O            -0.062914      0.090154     -0.361091
O            -0.450165      0.262381      0.379021
O             0.046640      0.252415      0.370206
O             0.432552      0.064668     -0.388298
Fe            0.156590      0.406844     -0.265836
Lu            0.364559     -0.412167      0.440542
Fe           -0.127721     -0.412615      0.294661
Fe           -0.342548      0.412286     -0.479011
H            -0.073086      0.417774     -0.431781
H            -0.398801     -0.409373      0.297545
H             0.120148     -0.414051     -0.458293
H             0.419066      0.390249     -0.315432
O            -0.197209      0.418739      0.393838
O            -0.279438     -0.410767     -0.362975
O             0.197674     -0.424298     -0.397473
O             0.292445      0.390678      0.335496
O            -0.046285      0.415054     -0.332202
O            -0.423855     -0.416615      0.400327
O             0.052165     -0.423132      0.374899
O             0.455750      0.392391     -0.411876
H            -0.269051     -0.336739      0.091191
H            -0.431954     -0.218580     -0.102729
H             0.083525      0.332263      0.133563
H             0.214040      0.349217      0.292254
data_nwchem_pspw

_audit_creation_date   Wed Sep  4 01:27:29 2024
_audit_creation_method    generated by PSPW module of NWChem


_cell_length_a            10.0667
_cell_length_b             9.1552
_cell_length_c             9.2041
_cell_angle_alpha         90.0000
_cell_angle_beta          90.0000
_cell_angle_gamma         90.0000

_symmetry_space_group_name_H-M     P1  

loop_
_atom_site_type_symbol
_atom_site_fract_x
_atom_site_fract_y
_atom_site_fract_z
Fe            0.143729     -0.256812      0.213677
Fe            0.346211     -0.081639     -0.008167
Fe           -0.155233     -0.081696     -0.211957
H            -0.350733     -0.168886      0.139895
H            -0.104477     -0.278833      0.000205
H            -0.412331     -0.079189     -0.227577
H             0.066896     -0.096624     -0.029260
H             0.407555     -0.240443      0.195102
O            -0.180055     -0.263757     -0.067806
O            -0.311000     -0.072824      0.159337
O             0.180642     -0.081833      0.101407
O             0.298923     -0.241497     -0.147518
O            -0.047099     -0.257065      0.151507
O            -0.449659     -0.089474     -0.120853
O             0.041039     -0.084083     -0.130028
O             0.455713     -0.234620      0.103250
Fe            0.153141      0.080826      0.248222
Lu            0.346040      0.251117     -0.044244
Fe           -0.161411      0.257894     -0.225130
Fe           -0.356646      0.076983      0.014267
H            -0.063172      0.075660      0.037215
H            -0.394505      0.252509     -0.222340
H             0.076187      0.215477     -0.056940
H             0.437814      0.040947      0.203945
O            -0.198544      0.086534     -0.092146
O            -0.302788      0.242448      0.148396
O             0.188998      0.261929      0.127744
O             0.296570      0.063133     -0.167968
O            -0.056184      0.087435      0.140618
O            -0.437039      0.238841     -0.123319
O             0.051818      0.239318     -0.153889
O             0.439685      0.090995      0.112150
H             0.093727      0.483546      0.368854
Fe            0.361379     -0.413839     -0.013402
Fe           -0.142577     -0.427412     -0.229657
Fe           -0.353954      0.409457      0.009111
H            -0.074724      0.420323      0.058310
H            -0.467629     -0.423060     -0.197968
H             0.080280     -0.442755     -0.042679
H             0.419466      0.396826      0.192735
O            -0.190998      0.420972     -0.093775
O            -0.291878     -0.424707      0.123364
O             0.222186     -0.412975      0.111936
O             0.296657      0.443925     -0.157871
O            -0.039572      0.413383      0.155495
O            -0.449582     -0.419352     -0.097226
O             0.041036     -0.432474     -0.137039
O             0.453138      0.417442      0.095338
Fe            0.141082     -0.233421     -0.260103
Fe            0.345344     -0.090051      0.475146
Fe           -0.131124     -0.084848      0.283643
Fe           -0.343561     -0.267214     -0.470488
H            -0.074853     -0.261976     -0.435521
H            -0.439892     -0.088134      0.297982
H             0.079180     -0.081889      0.461160
H             0.406712     -0.213944     -0.299495
O            -0.194285     -0.250657      0.397702
O            -0.304381     -0.081643     -0.346052
O             0.186572     -0.079005     -0.403056
O             0.302893     -0.234435      0.325081
O            -0.054678     -0.254394     -0.333625
O            -0.455506     -0.079833      0.400466
O             0.048323     -0.077296      0.359392
O             0.432372     -0.236179     -0.399870
Fe            0.139981      0.091601     -0.288554
Fe            0.362771      0.242407      0.493691
Fe           -0.140739      0.250725      0.264391
Fe           -0.352410      0.083131     -0.472910
H            -0.092468      0.070702     -0.441434
H            -0.399265      0.238965      0.296898
H             0.075767      0.267011      0.463846
H             0.423244      0.111284     -0.293717
O            -0.198760      0.082023      0.385606
O            -0.296667      0.247329     -0.358821
O             0.192310      0.269970     -0.399594
O             0.311394      0.087070      0.366883
O            -0.065190      0.077520     -0.340506
O            -0.437591      0.254001      0.394089
O             0.054279      0.251940      0.363302
O             0.455156      0.081142     -0.388834
Fe            0.131602      0.422161     -0.258868
Lu            0.349510     -0.410735      0.469971
Fe           -0.121603     -0.414629      0.279578
Fe           -0.345039      0.416858     -0.497583
H            -0.073071      0.382511     -0.447904
H            -0.390077     -0.387084      0.281914
H             0.116360     -0.401772     -0.476199
H             0.431014      0.405072     -0.298507
O            -0.185875      0.421133      0.395396
O            -0.287797     -0.432092     -0.347792
O             0.182645     -0.410097     -0.396042
O             0.311539      0.396901      0.348932
O            -0.053419      0.398966     -0.346193
O            -0.427544     -0.405317      0.378860
O             0.052555     -0.423606      0.386528
O             0.455743      0.409675     -0.399725
H            -0.261224     -0.355207      0.048185
H            -0.426591     -0.194362     -0.105950
H             0.123098      0.339669      0.118270
H             0.236559      0.374059      0.288934
data_nwchem_pspw

_audit_creation_date   Wed Sep  4 06:12:22 2024
_audit_creation_method    generated by PSPW module of NWChem


_cell_length_a            10.0667
_cell_length_b             9.1552
_cell_length_c             9.2041
_cell_angle_alpha         90.0000
_cell_angle_beta          90.0000
_cell_angle_gamma         90.0000

_symmetry_space_group_name_H-M     P1  

loop_
_atom_site_type_symbol
_atom_site_fract_x
_atom_site_fract_y
_atom_site_fract_z
Fe            0.136599     -0.265391      0.198208
Fe            0.347511     -0.080878     -0.009896
Fe           -0.136325     -0.084562     -0.220645
H            -0.387120     -0.145026      0.136082
H            -0.125966     -0.239710     -0.006958
H            -0.424800     -0.089608     -0.227712
H             0.089242     -0.088190     -0.049239
H             0.420583     -0.261210      0.183560
O            -0.186299     -0.239732     -0.093061
O            -0.305851     -0.085435      0.137158
O             0.192451     -0.067946      0.107196
O             0.304940     -0.244069     -0.160510
O            -0.051254     -0.264564      0.140738
O            -0.446070     -0.098032     -0.131627
O             0.055852     -0.076640     -0.148934
O             0.460537     -0.230880      0.093747
Fe            0.147890      0.078816      0.262145
Lu            0.346388      0.262304      0.002622
Fe           -0.158831      0.242691     -0.229183
Fe           -0.355032      0.094673      0.018787
H            -0.075135      0.082188      0.048552
H            -0.410166      0.225357     -0.196438
H             0.063291      0.239271     -0.035708
H             0.416721      0.076786      0.218865
O            -0.208356      0.089698     -0.099765
O            -0.311830      0.254855      0.165289
O             0.171159      0.263277      0.132666
O             0.296836      0.075714     -0.150350
O            -0.058820      0.084770      0.151950
O            -0.461436      0.234335     -0.102524
O             0.037013      0.243448     -0.136101
O             0.450660      0.069333      0.118141
H             0.093682      0.479997      0.321958
Fe            0.364801     -0.396059     -0.032379
Fe           -0.143389     -0.426350     -0.236135
Fe           -0.357048      0.428181      0.009668
H            -0.098661      0.405933      0.050751
H            -0.450768     -0.445014     -0.231226
H             0.063410     -0.432779     -0.032143
H             0.444559      0.415427      0.212883
O            -0.196151      0.419677     -0.097331
O            -0.292753     -0.414152      0.136618
O             0.201563     -0.427262      0.081892
O             0.310245      0.428163     -0.164060
O            -0.050982      0.410157      0.143012
O            -0.451472     -0.435689     -0.127547
O             0.044846     -0.415786     -0.135672
O             0.457950      0.436700      0.110890
Fe            0.146148     -0.251853     -0.256172
Fe            0.353974     -0.088598      0.464800
Fe           -0.154550     -0.088565      0.273167
Fe           -0.351087     -0.249933     -0.482283
H            -0.055706     -0.248580     -0.451149
H            -0.430875     -0.049572      0.297996
H             0.081938     -0.113066      0.464671
H             0.410313     -0.244737     -0.309903
O            -0.197845     -0.250988      0.387948
O            -0.291486     -0.089318     -0.344252
O             0.212878     -0.094392     -0.398336
O             0.300574     -0.243076      0.322036
O            -0.032361     -0.224166     -0.353019
O            -0.446076     -0.082682      0.395277
O             0.059851     -0.096145      0.361371
O             0.447833     -0.257929     -0.406702
Fe            0.145318      0.071698     -0.278798
Fe            0.361310      0.251279      0.489287
Fe           -0.140018      0.250589      0.283959
Fe           -0.351566      0.080788     -0.454232
H            -0.094842      0.076535     -0.444987
H            -0.419264      0.224448      0.301719
H             0.059279      0.236532      0.482977
H             0.411430      0.082777     -0.300074
O            -0.208263      0.073500      0.400572
O            -0.321603      0.251288     -0.339705
O             0.203258      0.240492     -0.392485
O             0.312892      0.087399      0.360815
O            -0.058566      0.076433     -0.347243
O            -0.449982      0.240208      0.400047
O             0.031017      0.220361      0.384680
O             0.450075      0.073881     -0.397599
Fe            0.145699      0.416947     -0.257830
Lu            0.353765     -0.414284      0.438295
Fe           -0.128312     -0.414867      0.270773
Fe           -0.351555      0.420468     -0.478080
H            -0.062854      0.416257     -0.452914
H            -0.394827     -0.433123      0.294008
H             0.114321     -0.416258     -0.491034
H             0.434296      0.395841     -0.293571
O            -0.206100      0.412905      0.389759
O            -0.290946     -0.411269     -0.370845
O             0.186521     -0.421981     -0.405155
O             0.307747      0.394831      0.340316
O            -0.050947      0.422204     -0.350465
O            -0.439653     -0.424020      0.387019
O             0.074075     -0.423902      0.354006
O             0.448147      0.416004     -0.396032
H            -0.293882     -0.338742      0.063403
H            -0.444326     -0.197173     -0.097954
H             0.095956      0.336815      0.135528
H             0.257855      0.342090      0.264820
data_nwchem_pspw

_audit_creation_date   Wed Sep  4 10:52:11 2024
_audit_creation_method    generated by PSPW module of NWChem


_cell_length_a            10.0667
_cell_length_b             9.1552
_cell_length_c             9.2041
_cell_angle_alpha         90.0000
_cell_angle_beta          90.0000
_cell_angle_gamma         90.0000

_symmetry_space_group_name_H-M     P1  

loop_
_atom_site_type_symbol
_atom_site_fract_x
_atom_site_fract_y
_atom_site_fract_z
Fe            0.119039     -0.255640      0.222767
Fe            0.354978     -0.089768     -0.000363
Fe           -0.145734     -0.069055     -0.229601
H            -0.372565     -0.148180      0.125450
H            -0.131960     -0.246153     -0.024165
H            -0.431274     -0.071396     -0.227558
H             0.105637     -0.086728     -0.033634
H             0.414457     -0.239539      0.207023
O            -0.206407     -0.239149     -0.095400
O            -0.302778     -0.075913      0.137402
O             0.190514     -0.079293      0.092822
O             0.292261     -0.243789     -0.128130
O            -0.072392     -0.247222      0.136930
O            -0.458765     -0.124268     -0.143782
O             0.050904     -0.076542     -0.125932
O             0.467187     -0.239962      0.119304
Fe            0.146253      0.073554      0.246257
Lu            0.361782      0.253076     -0.036215
Fe           -0.149401      0.256111     -0.239550
Fe           -0.338898      0.094843      0.020621
H            -0.076110      0.062324      0.047118
H            -0.390389      0.260024     -0.211190
H             0.057801      0.196786     -0.044137
H             0.422835      0.097525      0.197497
O            -0.187306      0.086673     -0.100011
O            -0.300483      0.259275      0.145935
O             0.205563      0.254083      0.128994
O             0.298338      0.069543     -0.148450
O            -0.052031      0.076728      0.147268
O            -0.433226      0.236434     -0.123231
O             0.047093      0.225919     -0.142875
O             0.461403      0.078410      0.103888
H             0.095703      0.491344      0.343649
Fe            0.355002     -0.409729     -0.004829
Fe           -0.156971     -0.398317     -0.234152
Fe           -0.359000      0.429976      0.019597
H            -0.100430      0.414683      0.056075
H            -0.443299     -0.428149     -0.204573
H             0.053382     -0.434524     -0.032014
H             0.454161      0.433012      0.222621
O            -0.205482      0.409507     -0.102019
O            -0.311646     -0.394695      0.144980
O             0.190498     -0.400323      0.098241
O             0.298343      0.438962     -0.167445
O            -0.045007      0.415928      0.143792
O            -0.467855     -0.437786     -0.103220
O             0.033683     -0.422763     -0.134592
O             0.448219      0.424023      0.119936
Fe            0.138702     -0.254323     -0.232586
Fe            0.347342     -0.079712      0.476978
Fe           -0.139949     -0.092464      0.258296
Fe           -0.334626     -0.242392     -0.480549
H            -0.074701     -0.261472     -0.451044
H            -0.456612     -0.069879      0.290991
H             0.074713     -0.091022      0.459444
H             0.443661     -0.222047     -0.301210
O            -0.190991     -0.239747      0.389217
O            -0.292029     -0.083859     -0.365686
O             0.199131     -0.093589     -0.396879
O             0.284908     -0.234652      0.337151
O            -0.045340     -0.244723     -0.349880
O            -0.464870     -0.093175      0.390811
O             0.047711     -0.079945      0.358691
O             0.463141     -0.247622     -0.400647
Fe            0.143818      0.074101     -0.272826
Fe            0.358914      0.239229      0.489392
Fe           -0.152224      0.252996      0.281895
Fe           -0.365516      0.073897     -0.482982
H            -0.106212      0.056394     -0.460894
H            -0.429366      0.257158      0.300691
H             0.061643      0.219200      0.466843
H             0.410585      0.075162     -0.285097
O            -0.213390      0.073314      0.402113
O            -0.290757      0.243313     -0.366314
O             0.199271      0.251238     -0.391279
O             0.308298      0.073877      0.346508
O            -0.053507      0.076949     -0.372369
O            -0.449107      0.257076      0.403890
O             0.035805      0.231201      0.367673
O             0.454402      0.062065     -0.379600
Fe            0.128548      0.406132     -0.259283
Lu            0.357282     -0.411723      0.459407
Fe           -0.135063     -0.419276      0.266555
Fe           -0.346215      0.407777     -0.468396
H            -0.056876      0.432001     -0.463252
H            -0.404419     -0.399859      0.284479
H             0.119505     -0.390756     -0.471861
H             0.427793      0.412911     -0.304696
O            -0.189549      0.412845      0.411432
O            -0.305807     -0.409277     -0.346318
O             0.183139     -0.413732     -0.389156
O             0.305470      0.392704      0.349671
O            -0.047520      0.412179     -0.359383
O            -0.426108     -0.418420      0.386120
O             0.052182     -0.420879      0.375337
O             0.464089      0.420963     -0.401238
H            -0.295301     -0.327400      0.065486
H            -0.393584     -0.198277     -0.111188
H             0.126084      0.316108      0.122363
H             0.274948      0.341002      0.263746
data_nwchem_pspw

_audit_creation_date   Wed Sep  4 20:07:02 2024
_audit_creation_method    generated by PSPW module of NWChem


_cell_length_a            10.0667
_cell_length_b             9.1552
_cell_length_c             9.2041
_cell_angle_alpha         90.0000
_cell_angle_beta          90.0000
_cell_angle_gamma         90.0000

_symmetry_space_group_name_H-M     P1  

loop_
_atom_site_type_symbol
_atom_site_fract_x
_atom_site_fract_y
_atom_site_fract_z
Fe            0.128429     -0.257761      0.207163
Fe            0.351338     -0.076642     -0.025365
Fe           -0.145333     -0.092527     -0.206891
H            -0.334844     -0.184216      0.147166
H            -0.131206     -0.250229      0.012903
H            -0.382116     -0.089359     -0.206745
H             0.101978     -0.083268     -0.056727
H             0.418943     -0.232587      0.196443
O            -0.204243     -0.258907     -0.065418
O            -0.303049     -0.089248      0.166690
O             0.191021     -0.076718      0.102777
O             0.309532     -0.249217     -0.167107
O            -0.053198     -0.262810      0.149830
O            -0.423874     -0.101013     -0.106954
O             0.060784     -0.073096     -0.151920
O             0.451181     -0.240562      0.097132
Fe            0.148380      0.087271      0.245360
Lu            0.333198      0.251376     -0.019501
Fe           -0.137270      0.243180     -0.235783
Fe           -0.354264      0.084016      0.016478
H            -0.065759      0.070834      0.050832
H            -0.405819      0.235522     -0.208404
H             0.079249      0.237097     -0.053635
H             0.434992      0.086695      0.205894
O            -0.195127      0.086470     -0.091799
O            -0.299637      0.229043      0.161564
O             0.153793      0.281904      0.108178
O             0.321355      0.078579     -0.173836
O            -0.054459      0.062009      0.153884
O            -0.445558      0.241459     -0.110107
O             0.077248      0.246517     -0.158754
O             0.461446      0.081928      0.103090
H             0.070905      0.481015      0.364449
Fe            0.352815     -0.410134     -0.024495
Fe           -0.135881     -0.432143     -0.211908
Fe           -0.366117      0.421697      0.011199
H            -0.086995      0.396002      0.057218
H            -0.415796     -0.411586     -0.197502
H             0.112439     -0.424418     -0.043760
H             0.430222      0.458599      0.198872
O            -0.195402      0.394260     -0.097489
O            -0.295259     -0.427008      0.146047
O             0.194055     -0.400098      0.086953
O             0.308772      0.431318     -0.155768
O            -0.059019      0.410283      0.157292
O            -0.453220     -0.408643     -0.099140
O             0.058049     -0.414479     -0.134209
O             0.440443      0.415581      0.106305
Fe            0.138668     -0.245299     -0.249543
Fe            0.351845     -0.101172      0.478801
Fe           -0.136179     -0.090288      0.287349
Fe           -0.339761     -0.250540     -0.478669
H            -0.078068     -0.246226     -0.447113
H            -0.393821     -0.059817      0.307757
H             0.094387     -0.085757      0.456494
H             0.424924     -0.246225     -0.296326
O            -0.182362     -0.245623      0.417776
O            -0.293912     -0.093695     -0.349238
O             0.193332     -0.087072     -0.407306
O             0.311876     -0.228276      0.327083
O            -0.050163     -0.251138     -0.344240
O            -0.444939     -0.076058      0.399494
O             0.049898     -0.088270      0.362048
O             0.466464     -0.251099     -0.392900
Fe            0.156889      0.090786     -0.301652
Fe            0.362069      0.245473      0.469917
Fe           -0.144256      0.246223      0.277698
Fe           -0.350037      0.078260     -0.479866
H            -0.099007      0.095793     -0.451931
H            -0.416955      0.250041      0.294469
H             0.027022      0.255364      0.475651
H             0.419835      0.096421     -0.303878
O            -0.204017      0.077587      0.404126
O            -0.300304      0.245277     -0.358992
O             0.210229      0.274503     -0.399103
O             0.315975      0.087485      0.341249
O            -0.051418      0.081151     -0.359883
O            -0.451627      0.253475      0.394670
O             0.027889      0.231489      0.375364
O             0.455401      0.084970     -0.402882
Fe            0.143061      0.421659     -0.273944
Lu            0.347790     -0.410623      0.459167
Fe           -0.128757     -0.412774      0.269358
Fe           -0.351810      0.416809     -0.470279
H            -0.113741      0.438695     -0.443401
H            -0.391629     -0.440860      0.306972
H             0.094538     -0.391727     -0.483025
H             0.419508      0.410165     -0.297902
O            -0.192977      0.430185      0.407994
O            -0.294166     -0.410438     -0.335219
O             0.171740     -0.413720     -0.404731
O             0.301691      0.424047      0.332696
O            -0.055976      0.420165     -0.353864
O            -0.435075     -0.417106      0.398096
O             0.060167     -0.415444      0.370727
O             0.456701      0.434289     -0.391870
H            -0.277715     -0.354488      0.069293
H            -0.372413     -0.186162     -0.075401
H             0.078561      0.342994      0.149556
H             0.249395      0.406573      0.247820
data_nwchem_pspw

_audit_creation_date   Thu Sep  5 08:13:53 2024
_audit_creation_method    generated by PSPW module of NWChem


_cell_length_a            10.0667
_cell_length_b             9.1552
_cell_length_c             9.2041
_cell_angle_alpha         90.0000
_cell_angle_beta          90.0000
_cell_angle_gamma         90.0000

_symmetry_space_group_name_H-M     P1  

loop_
_atom_site_type_symbol
_atom_site_fract_x
_atom_site_fract_y
_atom_site_fract_z
Fe            0.134104     -0.257544      0.206023
Fe            0.339012     -0.068096     -0.016543
Fe           -0.145511     -0.097540     -0.226785
H            -0.331463     -0.169794      0.138980
H            -0.119828     -0.241518     -0.002533
H            -0.399600     -0.068894     -0.239698
H             0.082262     -0.072546     -0.041556
H             0.398368     -0.202008      0.200573
O            -0.180561     -0.258520     -0.086159
O            -0.305183     -0.071942      0.163999
O             0.182841     -0.059834      0.098880
O             0.305654     -0.251580     -0.148530
O            -0.043109     -0.254988      0.158933
O            -0.457943     -0.076061     -0.141941
O             0.040575     -0.073310     -0.139103
O             0.434008     -0.214726      0.103199
Fe            0.137036      0.086937      0.250407
Lu            0.363706      0.259049     -0.010455
Fe           -0.158322      0.234651     -0.232092
Fe           -0.362540      0.080993      0.025132
H            -0.081945      0.049727      0.045021
H            -0.402988      0.227667     -0.215087
H             0.069000      0.209633     -0.022981
H             0.416494      0.045823      0.201260
O            -0.202850      0.079363     -0.095769
O            -0.310405      0.247256      0.148818
O             0.175997      0.263495      0.117574
O             0.303280      0.082425     -0.147164
O            -0.050295      0.082193      0.138383
O            -0.445568      0.223014     -0.117886
O             0.037587      0.233782     -0.119963
O             0.452713      0.086494      0.114486
H             0.094098      0.465944      0.377667
Fe            0.355897     -0.396586     -0.013580
Fe           -0.144260     -0.421134     -0.231764
Fe           -0.351344      0.420483      0.003637
H            -0.079567      0.418675      0.025734
H            -0.396983     -0.413924     -0.209891
H             0.099784     -0.416760     -0.037956
H             0.472760      0.418530      0.213966
O            -0.208556      0.415669     -0.121349
O            -0.285606     -0.418036      0.131991
O             0.194475     -0.407479      0.087495
O             0.308070      0.430976     -0.146801
O            -0.045788      0.415849      0.123469
O            -0.436485     -0.419950     -0.113234
O             0.054991     -0.426505     -0.133170
O             0.467292      0.441679      0.111447
Fe            0.131255     -0.231301     -0.252574
Fe            0.349488     -0.082034      0.495774
Fe           -0.134380     -0.083771      0.280402
Fe           -0.347093     -0.240308     -0.489203
H            -0.074101     -0.263873     -0.464279
H            -0.415746     -0.077555      0.297781
H             0.072051     -0.076607      0.453232
H             0.420929     -0.253772     -0.310447
O            -0.194374     -0.245832      0.392938
O            -0.303779     -0.077596     -0.348727
O             0.186092     -0.078956     -0.389574
O             0.272809     -0.229257      0.349128
O            -0.042247     -0.277362     -0.365458
O            -0.451286     -0.071832      0.395053
O             0.052845     -0.082514      0.350591
O             0.453606     -0.257808     -0.408543
Fe            0.132758      0.094953     -0.252757
Fe            0.346173      0.246939     -0.495714
Fe           -0.148982      0.250530      0.260384
Fe           -0.358227      0.089795     -0.482313
H            -0.089711      0.051487     -0.444950
H            -0.408248      0.244645      0.308391
H             0.041562      0.224142      0.476769
H             0.390414      0.078773     -0.291296
O            -0.203839      0.070828      0.397721
O            -0.310802      0.247673     -0.348830
O             0.198965      0.248820     -0.376482
O             0.304357      0.081680      0.345139
O            -0.056240      0.066705     -0.348646
O            -0.455573      0.255221      0.400598
O             0.029720      0.216916      0.374163
O             0.436180      0.079118     -0.385681
Fe            0.144844      0.414456     -0.248339
Lu            0.359254     -0.429968      0.440068
Fe           -0.115002     -0.432253      0.266247
Fe           -0.342692      0.422582     -0.483326
H            -0.052266      0.401310     -0.457890
H            -0.391954     -0.400233      0.273629
H             0.119482     -0.403458     -0.470696
H             0.448545      0.429333     -0.291207
O            -0.199411      0.416521      0.376777
O            -0.302998     -0.416737     -0.364531
O             0.197214     -0.405552     -0.397875
O             0.288815      0.382743      0.344654
O            -0.042705      0.409607     -0.354878
O            -0.427201     -0.417203      0.373331
O             0.058576     -0.437380      0.373916
O             0.457378      0.407937     -0.394242
H            -0.274296     -0.349782      0.052507
H            -0.442684     -0.175758     -0.110253
H             0.097875      0.326400      0.141745
H             0.270272      0.307668      0.275541
data_nwchem_pspw

_audit_creation_date   Thu Sep  5 12:39:39 2024
_audit_creation_method    generated by PSPW module of NWChem


_cell_length_a            10.0667
_cell_length_b             9.1552
_cell_length_c             9.2041
_cell_angle_alpha         90.0000
_cell_angle_beta          90.0000
_cell_angle_gamma         90.0000

_symmetry_space_group_name_H-M     P1  

loop_
_atom_site_type_symbol
_atom_site_fract_x
_atom_site_fract_y
_atom_site_fract_z
Fe            0.133958     -0.257555      0.195278
Fe            0.350636     -0.098515     -0.028870
Fe           -0.138317     -0.066012     -0.226349
H            -0.379060     -0.141106      0.142075
H            -0.134851     -0.261918     -0.002270
H            -0.390129     -0.082385     -0.210096
H             0.084168     -0.100648     -0.035023
H             0.412988     -0.226431      0.179566
O            -0.188875     -0.240907     -0.088398
O            -0.314294     -0.065951      0.170565
O             0.199890     -0.092751      0.088601
O             0.332245     -0.251071     -0.166707
O            -0.049043     -0.258177      0.143449
O            -0.429156     -0.097530     -0.115357
O             0.052855     -0.088819     -0.137658
O             0.461288     -0.236455      0.089348
Fe            0.136014      0.084759      0.235811
Lu            0.334293      0.241069     -0.038803
Fe           -0.146388      0.254732     -0.218707
Fe           -0.356715      0.090742      0.027088
H            -0.084342      0.046060      0.043654
H            -0.419551      0.251364     -0.210441
H             0.069734      0.194723     -0.034188
H             0.396393      0.058510      0.200724
O            -0.199813      0.081141     -0.091348
O            -0.302121      0.267042      0.143145
O             0.182191      0.269213      0.128769
O             0.303993      0.061408     -0.160136
O            -0.051006      0.057179      0.140991
O            -0.458278      0.242746     -0.112302
O             0.068434      0.242808     -0.126278
O             0.431383      0.070345      0.101018
H             0.081486      0.475915      0.366697
Fe            0.380445     -0.417413     -0.014973
Fe           -0.136550     -0.418848     -0.213700
Fe           -0.364895      0.424503      0.003148
H            -0.103044      0.404490      0.056478
H            -0.407300     -0.401627     -0.210426
H             0.077632     -0.437761     -0.028324
H             0.428351      0.412280      0.207735
O            -0.191374      0.421007     -0.090005
O            -0.303400     -0.421977      0.156368
O             0.222497     -0.407640      0.103435
O             0.301061      0.439442     -0.157467
O            -0.050642      0.412124      0.145246
O            -0.436728     -0.421289     -0.110507
O             0.053369     -0.412421     -0.124444
O             0.444490      0.413401      0.107459
Fe            0.148036     -0.251928     -0.247809
Fe            0.349633     -0.084513      0.458471
Fe           -0.135859     -0.100348      0.271526
Fe           -0.342155     -0.241047     -0.480197
H            -0.038696     -0.288338     -0.437628
H            -0.423373     -0.046884      0.306406
H             0.075093     -0.106030      0.455761
H             0.409090     -0.207383     -0.304619
O            -0.188240     -0.251229      0.402740
O            -0.295664     -0.071838     -0.348810
O             0.189034     -0.098082     -0.405523
O             0.291832     -0.241839      0.328502
O            -0.050953     -0.267291     -0.335490
O            -0.449516     -0.081377      0.402797
O             0.051214     -0.089024      0.355269
O             0.448903     -0.229681     -0.398473
Fe            0.146168      0.067368     -0.279198
Fe            0.361901      0.239957      0.478567
Fe           -0.148782      0.256886      0.279819
Fe           -0.358359      0.082902     -0.469924
H            -0.090341      0.099337     -0.462487
H            -0.407711      0.293809      0.313871
H             0.052136      0.205572      0.455780
H             0.400102      0.061976     -0.308534
O            -0.192612      0.086649      0.404756
O            -0.296765      0.244927     -0.342788
O             0.206995      0.240821     -0.383449
O             0.305748      0.085534      0.335709
O            -0.065761      0.106125     -0.354199
O            -0.442092      0.261681      0.405207
O             0.039573      0.243110      0.360248
O             0.435701      0.072979     -0.407634
Fe            0.150207      0.407568     -0.265093
Lu            0.348536     -0.396445      0.471352
Fe           -0.129164     -0.425732      0.278358
Fe           -0.345654      0.418936     -0.467195
H            -0.094321      0.436796     -0.446614
H            -0.403434     -0.387601      0.300271
H             0.119338     -0.411563     -0.469190
H             0.428767      0.436996     -0.301777
O            -0.193919      0.424241      0.408068
O            -0.289595     -0.402878     -0.346856
O             0.183022     -0.428572     -0.388918
O             0.295507      0.396752      0.352990
O            -0.060987      0.422174     -0.350188
O            -0.450594     -0.405184      0.391248
O             0.061544     -0.421736      0.375113
O             0.459610      0.416856     -0.399773
H            -0.288473     -0.337518      0.096391
H            -0.412946     -0.198874     -0.094552
H             0.121948      0.348935      0.142379
H             0.274191      0.361833      0.255982
data_nwchem_pspw

_audit_creation_date   Thu Sep  5 17:29:00 2024
_audit_creation_method    generated by PSPW module of NWChem


_cell_length_a            10.0667
_cell_length_b             9.1552
_cell_length_c             9.2041
_cell_angle_alpha         90.0000
_cell_angle_beta          90.0000
_cell_angle_gamma         90.0000

_symmetry_space_group_name_H-M     P1  

loop_
_atom_site_type_symbol
_atom_site_fract_x
_atom_site_fract_y
_atom_site_fract_z
Fe            0.130358     -0.252118      0.204118
Fe            0.347753     -0.080778     -0.014623
Fe           -0.142542     -0.087712     -0.226411
H            -0.372559     -0.180004      0.143903
H            -0.128098     -0.243402     -0.021546
H            -0.398104     -0.081229     -0.220363
H             0.047375     -0.084257     -0.029157
H             0.417546     -0.214310      0.186154
O            -0.199907     -0.242442     -0.096466
O            -0.321082     -0.092207      0.147290
O             0.196227     -0.080047      0.114503
O             0.294075     -0.237528     -0.135909
O            -0.055879     -0.249610      0.149262
O            -0.433099     -0.082915     -0.122538
O             0.032283     -0.085363     -0.131734
O             0.456643     -0.227450      0.088162
Fe            0.132722      0.080910      0.235082
Lu            0.356563      0.275328      0.001011
Fe           -0.154142      0.244302     -0.218507
Fe           -0.348227      0.088296      0.016167
H            -0.064736      0.066800      0.024814
H            -0.409286      0.236848     -0.202659
H             0.066186      0.262608     -0.033732
H             0.423999      0.092204      0.210268
O            -0.203421      0.086385     -0.102284
O            -0.303734      0.243335      0.141841
O             0.170616      0.272495      0.116740
O             0.297710      0.090544     -0.137147
O            -0.064576      0.061264      0.128627
O            -0.439912      0.258961     -0.105386
O             0.056753      0.253082     -0.136312
O             0.447789      0.068665      0.112842
H             0.087567      0.487126      0.325174
Fe            0.367703     -0.394403     -0.008259
Fe           -0.146071     -0.410317     -0.233849
Fe           -0.350557      0.422063      0.000029
H            -0.053204      0.452644      0.027985
H            -0.407017     -0.405356     -0.225516
H             0.064762     -0.408433     -0.031120
H             0.420226      0.424294      0.225142
O            -0.192660      0.421633     -0.096787
O            -0.303969     -0.415020      0.134574
O             0.202373     -0.406116      0.106152
O             0.314796      0.446101     -0.147850
O            -0.045000      0.422268      0.125432
O            -0.442256     -0.408369     -0.127276
O             0.059405     -0.403732     -0.135327
O             0.468479      0.417863      0.133073
Fe            0.142593     -0.244805     -0.248318
Fe            0.338601     -0.087670      0.486580
Fe           -0.150506     -0.094098      0.282683
Fe           -0.350532     -0.272815     -0.490773
H            -0.104582     -0.239318     -0.457917
H            -0.407300     -0.090800      0.310926
H             0.074238     -0.101655      0.451620
H             0.437954     -0.302248     -0.293253
O            -0.186202     -0.262552      0.394135
O            -0.282923     -0.100583     -0.366582
O             0.193869     -0.080240     -0.391530
O             0.289887     -0.225990      0.333431
O            -0.053428     -0.252970     -0.369250
O            -0.442308     -0.109191      0.407291
O             0.039791     -0.075625      0.357757
O             0.438267     -0.272547     -0.394002
Fe            0.152403      0.085752     -0.260271
Fe            0.353855      0.232557      0.497704
Fe           -0.154258      0.243529      0.264781
Fe           -0.354834      0.062279     -0.477967
H            -0.083854      0.074069     -0.445660
H            -0.422761      0.199601      0.287636
H             0.059374      0.233439      0.466556
H             0.422524      0.062149     -0.287171
O            -0.202700      0.079651      0.389412
O            -0.307961      0.236017     -0.348473
O             0.195973      0.248532     -0.388881
O             0.294667      0.080393      0.355377
O            -0.050962      0.083803     -0.349389
O            -0.449287      0.212710      0.386172
O             0.041059      0.233889      0.364479
O             0.443649      0.055813     -0.388392
Fe            0.156144      0.417719     -0.256340
Lu            0.357298     -0.409117      0.435378
Fe           -0.139166     -0.417891      0.270048
Fe           -0.355331      0.398156     -0.487895
H            -0.047716      0.436986     -0.430414
H            -0.395112     -0.428645      0.281355
H             0.114986     -0.394532     -0.466186
H             0.444610      0.415878     -0.300815
O            -0.196163      0.422657      0.388198
O            -0.291081     -0.424643     -0.355691
O             0.187381     -0.415680     -0.397395
O             0.311531      0.383879      0.345478
O            -0.047133      0.412122     -0.329335
O            -0.437785     -0.443157      0.378462
O             0.052524     -0.424259      0.362550
O             0.459439      0.405140     -0.403917
H            -0.282976     -0.348089      0.055068
H            -0.396305     -0.172673     -0.083813
H             0.107479      0.354466      0.129533
H             0.244459      0.332568      0.292786
data_nwchem_pspw

_audit_creation_date   Fri Sep  6 00:34:52 2024
_audit_creation_method    generated by PSPW module of NWChem


_cell_length_a            10.0667
_cell_length_b             9.1552
_cell_length_c             9.2041
_cell_angle_alpha         90.0000
_cell_angle_beta          90.0000
_cell_angle_gamma         90.0000

_symmetry_space_group_name_H-M     P1  

loop_
_atom_site_type_symbol
_atom_site_fract_x
_atom_site_fract_y
_atom_site_fract_z
Fe            0.125414     -0.252334      0.201014
Fe            0.357064     -0.089884     -0.022137
Fe           -0.149871     -0.071335     -0.218911
H            -0.353642     -0.174335      0.133769
H            -0.132074     -0.248983     -0.011050
H            -0.398748     -0.079504     -0.224804
H             0.064007     -0.076292     -0.017022
H             0.397304     -0.272238      0.184028
O            -0.196279     -0.239087     -0.085719
O            -0.310842     -0.084142      0.154712
O             0.201995     -0.062233      0.098795
O             0.319406     -0.254000     -0.154290
O            -0.066329     -0.249606      0.142934
O            -0.452328     -0.112291     -0.137778
O             0.060811     -0.075815     -0.124170
O             0.457330     -0.267229      0.101955
Fe            0.142852      0.081766      0.244354
Lu            0.340350      0.246836     -0.042561
Fe           -0.145717      0.247128     -0.216937
Fe           -0.359612      0.087162      0.028104
H            -0.067283      0.073163      0.040566
H            -0.409229      0.227930     -0.208335
H             0.069897      0.257779     -0.041233
H             0.392475      0.081031      0.187788
O            -0.203552      0.083431     -0.094222
O            -0.296970      0.251588      0.154046
O             0.189560      0.273617      0.129517
O             0.301445      0.049678     -0.163343
O            -0.047904      0.088070      0.140343
O            -0.454966      0.214898     -0.114760
O             0.060541      0.245229     -0.142687
O             0.441193      0.079712      0.096491
H             0.071589      0.473414      0.342708
Fe            0.357585     -0.417347     -0.024417
Fe           -0.159454     -0.417465     -0.212446
Fe           -0.366059      0.409531      0.015890
H            -0.091615      0.414926      0.056777
H            -0.424606     -0.408943     -0.218168
H             0.103001     -0.412401     -0.037014
H             0.413138      0.409833      0.198339
O            -0.197377      0.415832     -0.090342
O            -0.305898     -0.416154      0.146040
O             0.202810     -0.403254      0.107796
O             0.288557      0.438241     -0.155091
O            -0.043297      0.421062      0.147622
O            -0.461628     -0.437508     -0.124632
O             0.045922     -0.416290     -0.122062
O             0.456547      0.398619      0.105693
Fe            0.151792     -0.253524     -0.251075
Fe            0.349602     -0.089474      0.484559
Fe           -0.135583     -0.081837      0.282936
Fe           -0.350626     -0.237482     -0.472496
H            -0.074925     -0.248522     -0.425346
H            -0.418168     -0.079901      0.317655
H             0.098780     -0.111189      0.446092
H             0.430648     -0.238182     -0.288260
O            -0.187937     -0.249766      0.400484
O            -0.305505     -0.063311     -0.340268
O             0.189019     -0.088753     -0.402237
O             0.306243     -0.240036      0.333433
O            -0.055906     -0.243685     -0.321887
O            -0.446471     -0.061706      0.415190
O             0.066991     -0.101684      0.344742
O             0.459844     -0.235003     -0.389006
Fe            0.147500      0.079898     -0.269298
Fe            0.360954      0.236649      0.488495
Fe           -0.142720      0.249909      0.267080
Fe           -0.340851      0.098947     -0.479005
H            -0.075829      0.095370     -0.446106
H            -0.407153      0.246552      0.299025
H             0.053604      0.242952      0.456460
H             0.435777      0.073609     -0.277887
O            -0.199775      0.077742      0.399897
O            -0.295388      0.250922     -0.344810
O             0.205572      0.255819     -0.387572
O             0.299626      0.073558      0.357257
O            -0.045014      0.093866     -0.347513
O            -0.441273      0.250510      0.400516
O             0.035929      0.243797      0.354904
O             0.453451      0.088177     -0.380002
Fe            0.130733      0.420316     -0.259574
Lu            0.362021     -0.412303      0.462415
Fe           -0.134082     -0.415677      0.257240
Fe           -0.341775      0.418482     -0.485757
H            -0.085742      0.410870     -0.441233
H            -0.411139     -0.396710      0.286552
H             0.112216     -0.407902     -0.480808
H             0.434222      0.426091     -0.291474
O            -0.189670      0.408145      0.388677
O            -0.303557     -0.407324     -0.359219
O             0.181047     -0.409310     -0.401028
O             0.327563      0.388711      0.342858
O            -0.058698      0.420467     -0.339702
O            -0.434102     -0.395683      0.392326
O             0.050901     -0.425520      0.362411
O             0.453225      0.409464     -0.392372
H            -0.323100     -0.351106      0.066894
H            -0.419771     -0.208362     -0.120618
H             0.111537      0.340687      0.124531
H             0.272585      0.354745      0.258863
data_nwchem_pspw

_audit_creation_date   Fri Sep  6 07:00:38 2024
_audit_creation_method    generated by PSPW module of NWChem


_cell_length_a            10.0667
_cell_length_b             9.1552
_cell_length_c             9.2041
_cell_angle_alpha         90.0000
_cell_angle_beta          90.0000
_cell_angle_gamma         90.0000

_symmetry_space_group_name_H-M     P1  

loop_
_atom_site_type_symbol
_atom_site_fract_x
_atom_site_fract_y
_atom_site_fract_z
Fe            0.138195     -0.240789      0.192386
Fe            0.357565     -0.074872     -0.023881
Fe           -0.137874     -0.093299     -0.222709
H            -0.378449     -0.164472      0.105758
H            -0.134645     -0.273110     -0.005074
H            -0.408339     -0.054298     -0.202715
H             0.105766     -0.100306     -0.039030
H             0.398509     -0.235988      0.192469
O            -0.193643     -0.264782     -0.089925
O            -0.323306     -0.092421      0.155020
O             0.198899     -0.069249      0.090972
O             0.302172     -0.235770     -0.153385
O            -0.051715     -0.250121      0.141513
O            -0.431083     -0.092606     -0.103178
O             0.049068     -0.092533     -0.124413
O             0.448372     -0.221846      0.103328
Fe            0.122535      0.082791      0.248044
Lu            0.349153      0.257400     -0.006125
Fe           -0.143295      0.235202     -0.224326
Fe           -0.358004      0.086309      0.023783
H            -0.078221      0.058279      0.039819
H            -0.401606      0.275631     -0.204089
H             0.064720      0.192405     -0.028834
H             0.403016      0.083896      0.226716
O            -0.193902      0.074988     -0.099381
O            -0.314003      0.256180      0.144937
O             0.179264      0.277437      0.126269
O             0.302543      0.076920     -0.150911
O            -0.059352      0.063768      0.142371
O            -0.447883      0.247661     -0.116961
O             0.056325      0.226452     -0.125745
O             0.445188      0.083817      0.128889
H             0.093493      0.479547      0.320347
Fe            0.368206     -0.387101     -0.028294
Fe           -0.144380     -0.423578     -0.224923
Fe           -0.346721      0.425305     -0.000969
H            -0.090363      0.403020      0.043559
H            -0.449623     -0.416740     -0.227720
H             0.080545     -0.428004     -0.033913
H             0.430273      0.466732      0.205803
O            -0.188101      0.405414     -0.109303
O            -0.293582     -0.423401      0.137115
O             0.202717     -0.393113      0.084801
O             0.301201      0.443009     -0.139390
O            -0.061062      0.395215      0.143487
O            -0.458523     -0.412656     -0.125347
O             0.045622     -0.425841     -0.134399
O             0.457312      0.448966      0.106862
Fe            0.140471     -0.247768     -0.245183
Fe            0.353736     -0.082117      0.466197
Fe           -0.152543     -0.112218      0.262097
Fe           -0.348358     -0.237629     -0.475739
H            -0.099274     -0.257838     -0.444205
H            -0.422224     -0.081241      0.301956
H             0.089607     -0.103253      0.445005
H             0.397836     -0.241122     -0.300319
O            -0.186444     -0.253504      0.414464
O            -0.290239     -0.076538     -0.346287
O             0.195963     -0.097743     -0.404367
O             0.293712     -0.226833      0.338083
O            -0.055613     -0.249250     -0.347559
O            -0.452507     -0.096110      0.401910
O             0.044296     -0.091216      0.351777
O             0.451326     -0.251244     -0.387168
Fe            0.157604      0.074262     -0.283356
Fe            0.352299      0.249186      0.473715
Fe           -0.150302      0.241177      0.284289
Fe           -0.350619      0.087313     -0.473915
H            -0.068912      0.047375     -0.447263
H            -0.408205      0.266039      0.305947
H             0.069400      0.239522      0.462420
H             0.405072      0.072913     -0.303987
O            -0.199102      0.060319      0.386931
O            -0.285495      0.253751     -0.364893
O             0.201891      0.251743     -0.396882
O             0.297759      0.101671      0.338055
O            -0.040840      0.057512     -0.347952
O            -0.447987      0.257601      0.401433
O             0.035351      0.244311      0.363770
O             0.448052      0.066184     -0.395809
Fe            0.146001      0.409132     -0.248606
Lu            0.347226     -0.416450      0.454415
Fe           -0.121132     -0.432642      0.256506
Fe           -0.350815      0.431321     -0.472976
H            -0.073530      0.383252     -0.429918
H            -0.393151     -0.379113      0.305751
H             0.110232     -0.425564     -0.476050
H             0.412653      0.419799     -0.294606
O            -0.197694      0.416837      0.400750
O            -0.301400     -0.418577     -0.333794
O             0.180591     -0.419370     -0.397574
O             0.319995      0.403663      0.330286
O            -0.053747      0.408165     -0.330800
O            -0.441478     -0.405330      0.390748
O             0.059918     -0.427143      0.352270
O             0.448540      0.426184     -0.391832
H            -0.281374     -0.352507      0.060861
H            -0.395293     -0.187173     -0.091912
H             0.110284      0.351195      0.120214
H             0.272734      0.359777      0.248361
data_nwchem_pspw

_audit_creation_date   Fri Sep  6 11:10:44 2024
_audit_creation_method    generated by PSPW module of NWChem


_cell_length_a            10.0667
_cell_length_b             9.1552
_cell_length_c             9.2041
_cell_angle_alpha         90.0000
_cell_angle_beta          90.0000
_cell_angle_gamma         90.0000

_symmetry_space_group_name_H-M     P1  

loop_
_atom_site_type_symbol
_atom_site_fract_x
_atom_site_fract_y
_atom_site_fract_z
Fe            0.130625     -0.255567      0.208656
Fe            0.349403     -0.086927     -0.001053
Fe           -0.147279     -0.071273     -0.219703
H            -0.396895     -0.139534      0.132269
H            -0.129840     -0.268446     -0.028105
H            -0.419858     -0.083366     -0.226103
H             0.091494     -0.086606     -0.027140
H             0.383425     -0.232093      0.212497
O            -0.201704     -0.259084     -0.101559
O            -0.325136     -0.066720      0.140628
O             0.198151     -0.070787      0.121907
O             0.299968     -0.242767     -0.144005
O            -0.042480     -0.256161      0.138854
O            -0.459888     -0.103971     -0.134125
O             0.053799     -0.081104     -0.124572
O             0.451920     -0.242340      0.131507
Fe            0.136828      0.087804      0.249427
Lu            0.349746      0.247700     -0.032972
Fe           -0.144035      0.242691     -0.228725
Fe           -0.350482      0.096771      0.024180
H            -0.086710      0.077243      0.045945
H            -0.393270      0.253039     -0.214008
H             0.045165      0.249725     -0.032957
H             0.410689      0.100145      0.207496
O            -0.182772      0.091508     -0.082411
O            -0.303189      0.247874      0.147674
O             0.180083      0.248136      0.108822
O             0.315796      0.062027     -0.162241
O            -0.056127      0.077765      0.149002
O            -0.442051      0.229669     -0.121760
O             0.039278      0.248252     -0.135732
O             0.427196      0.083095      0.105712
H             0.067597      0.486435      0.321027
Fe            0.361064     -0.406218     -0.010922
Fe           -0.151115     -0.421494     -0.231625
Fe           -0.354938      0.414289      0.008387
H            -0.064612      0.435316      0.048454
H            -0.414926     -0.416151     -0.205982
H             0.045211     -0.383487     -0.022720
H             0.425676      0.387126      0.194950
O            -0.209589      0.412337     -0.116141
O            -0.300792     -0.420408      0.151157
O             0.217747     -0.387331      0.098912
O             0.306466      0.450594     -0.145727
O            -0.034735      0.402998      0.141521
O            -0.445127     -0.395617     -0.108369
O             0.050274     -0.405180     -0.125625
O             0.465192      0.408115      0.099443
Fe            0.142305     -0.234549     -0.241459
Fe            0.335846     -0.088596      0.488561
Fe           -0.148329     -0.089387      0.267229
Fe           -0.342176     -0.247576     -0.469026
H            -0.060154     -0.241095     -0.443444
H            -0.441037     -0.068946      0.300917
H             0.083068     -0.087619      0.453509
H             0.416578     -0.265555     -0.298885
O            -0.208383     -0.243326      0.382905
O            -0.295495     -0.074962     -0.349957
O             0.177198     -0.085172     -0.400403
O             0.291529     -0.227394      0.341326
O            -0.055229     -0.235458     -0.341483
O            -0.454994     -0.079281      0.403410
O             0.043806     -0.097632      0.355175
O             0.444077     -0.257211     -0.398585
Fe            0.153431      0.087201     -0.270308
Fe            0.347053      0.241213     -0.499645
Fe           -0.142061      0.251476      0.264297
Fe           -0.357120      0.082546     -0.493905
H            -0.069239      0.083773     -0.459724
H            -0.398032      0.245970      0.283954
H             0.057792      0.257317      0.467470
H             0.416912      0.103562     -0.303850
O            -0.190949      0.085820      0.398723
O            -0.308821      0.245100     -0.338934
O             0.187819      0.266186     -0.383380
O             0.303012      0.078952      0.358483
O            -0.047110      0.082653     -0.355333
O            -0.432584      0.244612      0.382373
O             0.030004      0.241075      0.369199
O             0.447621      0.079030     -0.399257
Fe            0.138707      0.428904     -0.243598
Lu            0.370067     -0.422845      0.443542
Fe           -0.132602     -0.419230      0.267013
Fe           -0.346944      0.403330     -0.472266
H            -0.082964      0.423832     -0.452146
H            -0.385695     -0.412063      0.292199
H             0.114247     -0.405874     -0.472055
H             0.428599      0.422484     -0.287877
O            -0.184069      0.414139      0.412986
O            -0.305166     -0.420316     -0.347581
O             0.182348     -0.409593     -0.394698
O             0.306070      0.393039      0.331960
O            -0.051783      0.423789     -0.348703
O            -0.423841     -0.412954      0.393866
O             0.049749     -0.419320      0.362807
O             0.442065      0.406124     -0.391555
H            -0.321738     -0.356707      0.070114
H            -0.450906     -0.211529     -0.116618
H             0.117385      0.331469      0.121105
H             0.229857      0.351457      0.284206
data_nwchem_pspw

_audit_creation_date   Fri Sep  6 16:28:22 2024
_audit_creation_method    generated by PSPW module of NWChem


_cell_length_a            10.0667
_cell_length_b             9.1552
_cell_length_c             9.2041
_cell_angle_alpha         90.0000
_cell_angle_beta          90.0000
_cell_angle_gamma         90.0000

_symmetry_space_group_name_H-M     P1  

loop_
_atom_site_type_symbol
_atom_site_fract_x
_atom_site_fract_y
_atom_site_fract_z
Fe            0.144991     -0.268732      0.198244
Fe            0.354513     -0.093192     -0.007312
Fe           -0.143653     -0.083604     -0.207547
H            -0.264593     -0.152884      0.065487
H            -0.127312     -0.254544      0.008469
H            -0.396846     -0.081726     -0.216523
H             0.091545     -0.071668     -0.042854
H             0.402283     -0.266275      0.187635
O            -0.185913     -0.255899     -0.081722
O            -0.294788     -0.092674      0.145888
O             0.192351     -0.076250      0.098342
O             0.295337     -0.252648     -0.165240
O            -0.048671     -0.244737      0.151175
O            -0.432204     -0.103534     -0.118383
O             0.054298     -0.081095     -0.141437
O             0.453123     -0.253953      0.101034
Fe            0.162161      0.081599      0.238919
Lu            0.348592      0.260326     -0.016372
Fe           -0.153210      0.247318     -0.217101
Fe           -0.359243      0.075665      0.030393
H            -0.109637      0.064747      0.068629
H            -0.422204      0.245656     -0.217078
H             0.060939      0.221311     -0.045096
H             0.418083      0.071533      0.215595
O            -0.214538      0.085917     -0.092987
O            -0.310342      0.243653      0.151759
O             0.181034      0.253151      0.097595
O             0.316033      0.059338     -0.162085
O            -0.055510      0.077869      0.153089
O            -0.443475      0.235844     -0.115281
O             0.040101      0.235285     -0.147187
O             0.439473      0.082208      0.111944
H             0.067446      0.473319      0.349428
Fe            0.366729     -0.403970     -0.038660
Fe           -0.150655     -0.429878     -0.239547
Fe           -0.357625      0.402914      0.013685
H            -0.093859      0.408331      0.044878
H            -0.411684     -0.411543     -0.198161
H             0.089699     -0.422028     -0.044679
H             0.421723      0.426377      0.206190
O            -0.204904      0.417114     -0.105105
O            -0.308196     -0.422071      0.158213
O             0.215298     -0.410513      0.076773
O             0.306217      0.435950     -0.159585
O            -0.052917      0.427034      0.136878
O            -0.445262     -0.423590     -0.100537
O             0.047370     -0.425811     -0.139891
O             0.460161      0.432878      0.109654
Fe            0.133287     -0.248769     -0.263032
Fe            0.354034     -0.084000      0.468613
Fe           -0.127345     -0.099439      0.282580
Fe           -0.344048     -0.242279     -0.469733
H            -0.088808     -0.257956     -0.452800
H            -0.407916     -0.127036      0.296564
H             0.097339     -0.055997      0.459712
H             0.395250     -0.235827     -0.293250
O            -0.188753     -0.256433      0.409425
O            -0.286758     -0.078311     -0.351437
O             0.190889     -0.083033     -0.402141
O             0.292726     -0.234588      0.335742
O            -0.058361     -0.265758     -0.350731
O            -0.439594     -0.096780      0.389973
O             0.057671     -0.050218      0.361647
O             0.439292     -0.229741     -0.389057
Fe            0.149767      0.082706     -0.277248
Fe            0.353636      0.248946      0.476848
Fe           -0.134508      0.253953      0.280276
Fe           -0.351272      0.079242     -0.481943
H            -0.088892      0.054568     -0.446589
H            -0.421822      0.282555      0.306661
H             0.096683      0.246455      0.454576
H             0.399490      0.069956     -0.303270
O            -0.207648      0.073889      0.393392
O            -0.281317      0.244377     -0.357090
O             0.206139      0.258153     -0.391637
O             0.316003      0.065212      0.340013
O            -0.052641      0.074237     -0.351062
O            -0.450593      0.246723      0.399070
O             0.062385      0.270641      0.359905
O             0.453071      0.096956     -0.393429
Fe            0.136882      0.410688     -0.261257
Lu            0.343253     -0.397020      0.471836
Fe           -0.142085     -0.413883      0.259921
Fe           -0.354981      0.407095     -0.488578
H            -0.087544      0.390378     -0.451799
H            -0.411951     -0.422787      0.297354
H             0.082608     -0.410013     -0.496698
H             0.417335      0.418720     -0.294911
O            -0.197237      0.411280      0.389664
O            -0.306703     -0.410568     -0.350954
O             0.158620     -0.420712     -0.416038
O             0.310444      0.412738      0.332221
O            -0.045683      0.407196     -0.358861
O            -0.438279     -0.409222      0.399869
O             0.047663     -0.423435      0.355602
O             0.454211      0.409848     -0.393119
H            -0.332265     -0.356181      0.079969
H            -0.438421     -0.208314     -0.096709
H             0.125891      0.331632      0.137307
H             0.222566      0.400356      0.298538
data_nwchem_pspw

_audit_creation_date   Fri Sep  6 23:57:59 2024
_audit_creation_method    generated by PSPW module of NWChem


_cell_length_a            10.0667
_cell_length_b             9.1552
_cell_length_c             9.2041
_cell_angle_alpha         90.0000
_cell_angle_beta          90.0000
_cell_angle_gamma         90.0000

_symmetry_space_group_name_H-M     P1  

loop_
_atom_site_type_symbol
_atom_site_fract_x
_atom_site_fract_y
_atom_site_fract_z
Fe            0.135671     -0.252205      0.216962
Fe            0.339365     -0.087752     -0.004859
Fe           -0.141425     -0.060785     -0.227971
H            -0.297157     -0.170685      0.086446
H            -0.138546     -0.255933     -0.001917
H            -0.420794     -0.092826     -0.218266
H             0.093655     -0.067651     -0.056825
H             0.380680     -0.234722      0.206334
O            -0.201306     -0.233020     -0.089674
O            -0.297078     -0.079650      0.142844
O             0.187332     -0.072815      0.110572
O             0.290735     -0.238473     -0.147995
O            -0.066218     -0.241011      0.154120
O            -0.444604     -0.097304     -0.107036
O             0.056202     -0.081708     -0.152776
O             0.436378     -0.238237      0.116010
Fe            0.141680      0.086451      0.257612
Lu            0.346992      0.255890     -0.022281
Fe           -0.153163      0.261162     -0.223843
Fe           -0.350316      0.080201      0.020964
H            -0.077265      0.060197      0.060893
H            -0.404053      0.237561     -0.219629
H             0.035563      0.249999     -0.021245
H             0.415540      0.067266      0.216457
O            -0.186525      0.089163     -0.090379
O            -0.300814      0.246761      0.152342
O             0.180729      0.271418      0.127823
O             0.321224      0.061767     -0.156042
O            -0.052147      0.070670      0.161676
O            -0.433549      0.247504     -0.118130
O             0.049049      0.243334     -0.124724
O             0.448155      0.084809      0.118312
H             0.090683      0.497322      0.322838
Fe            0.362592     -0.396991     -0.016870
Fe           -0.150219     -0.401326     -0.234551
Fe           -0.353009      0.422929      0.014233
H            -0.108097      0.421138      0.042086
H            -0.426641     -0.396173     -0.210893
H             0.069404     -0.412668     -0.051406
H             0.426664      0.405120      0.203963
O            -0.198737      0.436044     -0.096109
O            -0.303375     -0.423230      0.138838
O             0.201163     -0.401326      0.091014
O             0.318851      0.439360     -0.173531
O            -0.062406      0.416336      0.138780
O            -0.456910     -0.421769     -0.114162
O             0.041086     -0.410613     -0.152475
O             0.444889      0.424320      0.104636
Fe            0.136220     -0.251447     -0.273385
Fe            0.362260     -0.102068      0.487969
Fe           -0.144206     -0.085766      0.275362
Fe           -0.341397     -0.256937     -0.464089
H            -0.087339     -0.232920     -0.451393
H            -0.424605     -0.096959      0.311753
H             0.052365     -0.056924      0.471953
H             0.399585     -0.265510     -0.297356
O            -0.199270     -0.253398      0.398116
O            -0.295901     -0.088480     -0.351849
O             0.198163     -0.095445     -0.402627
O             0.290054     -0.228939      0.346934
O            -0.063371     -0.238665     -0.348551
O            -0.447077     -0.091799      0.414583
O             0.045221     -0.062201      0.369352
O             0.458422     -0.272202     -0.382485
Fe            0.155381      0.074849     -0.273719
Fe            0.352777      0.236070      0.476121
Fe           -0.138363      0.252948      0.276971
Fe           -0.354261      0.089363     -0.473830
H            -0.038714      0.112122     -0.447966
H            -0.399707      0.240323      0.304953
H             0.083331      0.292596      0.450170
H             0.431564      0.064232     -0.294476
O            -0.213761      0.083267      0.398494
O            -0.301911      0.234494     -0.350101
O             0.206938      0.238773     -0.388756
O             0.305055      0.077405      0.347937
O            -0.052030      0.105867     -0.343623
O            -0.450672      0.274332      0.389349
O             0.029055      0.229809      0.392778
O             0.455902      0.064593     -0.401354
Fe            0.152851      0.404090     -0.258584
Lu            0.356874     -0.430665      0.440956
Fe           -0.130214     -0.412534      0.264954
Fe           -0.354061      0.410542     -0.477621
H            -0.067645      0.428222     -0.443704
H            -0.382305     -0.429182      0.307673
H             0.106219     -0.421914     -0.484282
H             0.418611      0.413700     -0.312775
O            -0.203168      0.425245      0.397399
O            -0.307865     -0.425726     -0.348039
O             0.173444     -0.428927     -0.405977
O             0.294881      0.400156      0.327074
O            -0.043504      0.421802     -0.343128
O            -0.432088     -0.411921      0.401996
O             0.063904     -0.412690      0.365479
O             0.450024      0.403011     -0.415017
H            -0.374571     -0.353861      0.128196
H            -0.377712     -0.173287     -0.082845
H             0.116745      0.349248      0.118868
H             0.251928      0.373560      0.234516
data_nwchem_pspw

_audit_creation_date   Sat Sep  7 05:28:41 2024
_audit_creation_method    generated by PSPW module of NWChem


_cell_length_a            10.0667
_cell_length_b             9.1552
_cell_length_c             9.2041
_cell_angle_alpha         90.0000
_cell_angle_beta          90.0000
_cell_angle_gamma         90.0000

_symmetry_space_group_name_H-M     P1  

loop_
_atom_site_type_symbol
_atom_site_fract_x
_atom_site_fract_y
_atom_site_fract_z
Fe            0.133475     -0.222367      0.213569
Fe            0.341943     -0.088480     -0.015136
Fe           -0.147880     -0.068801     -0.228621
H            -0.382752     -0.180191      0.141566
H            -0.147499     -0.248003     -0.007631
H            -0.413579     -0.061030     -0.209916
H             0.075557     -0.088643     -0.047318
H             0.396362     -0.235297      0.200364
O            -0.199913     -0.253322     -0.093323
O            -0.314518     -0.106712      0.153554
O             0.184565     -0.050161      0.100984
O             0.292608     -0.247468     -0.153915
O            -0.047173     -0.242626      0.152292
O            -0.450739     -0.097005     -0.117677
O             0.057584     -0.088774     -0.149359
O             0.446336     -0.239541      0.108277
Fe            0.140652      0.105924      0.247675
Lu            0.343746      0.241874     -0.029643
Fe           -0.143493      0.251303     -0.235169
Fe           -0.341833      0.084706      0.030082
H            -0.089443      0.072473      0.047843
H            -0.394273      0.239649     -0.215680
H             0.047718      0.213402     -0.044304
H             0.414035      0.058170      0.194217
O            -0.189012      0.092079     -0.100082
O            -0.309948      0.241268      0.161331
O             0.172302      0.274651      0.106988
O             0.307034      0.056191     -0.174006
O            -0.048647      0.085158      0.142651
O            -0.439522      0.225798     -0.128046
O             0.044430      0.221591     -0.147973
O             0.444152      0.061449      0.093249
H             0.048650      0.445284      0.366094
Fe            0.354701     -0.408264     -0.016879
Fe           -0.144007     -0.419659     -0.221598
Fe           -0.361617      0.414594      0.014283
H            -0.106578      0.435201      0.036971
H            -0.417812     -0.410070     -0.191324
H             0.083252     -0.430368     -0.047324
H             0.417852      0.423354      0.200136
O            -0.204241      0.405564     -0.098412
O            -0.302024     -0.425102      0.155061
O             0.198598     -0.391378      0.102938
O             0.312849      0.436582     -0.158046
O            -0.060281      0.415150      0.125921
O            -0.447149     -0.427602     -0.090782
O             0.046038     -0.436622     -0.145406
O             0.447270      0.402038      0.101327
Fe            0.140588     -0.264360     -0.276092
Fe            0.347272     -0.070978      0.481628
Fe           -0.131188     -0.097283      0.275631
Fe           -0.339434     -0.250166     -0.475030
H            -0.088867     -0.243024     -0.454895
H            -0.417104     -0.064734      0.303772
H             0.088994     -0.093169      0.463952
H             0.419594     -0.242042     -0.296028
O            -0.179216     -0.251453      0.401462
O            -0.302498     -0.079905     -0.343267
O             0.198732     -0.097864     -0.410355
O             0.289890     -0.228602      0.349270
O            -0.051806     -0.235771     -0.356083
O            -0.450193     -0.077612      0.401826
O             0.069080     -0.069167      0.363313
O             0.458038     -0.234949     -0.392025
Fe            0.147977      0.062415     -0.281542
Fe            0.357975      0.252569      0.471961
Fe           -0.146908      0.248352      0.274755
Fe           -0.349803      0.085905     -0.489520
H            -0.086352      0.078119     -0.449318
H            -0.444353      0.240993      0.294967
H             0.061542      0.243189      0.476447
H             0.422245      0.096388     -0.309080
O            -0.188267      0.066436      0.397801
O            -0.293391      0.256230     -0.362561
O             0.213888      0.254151     -0.383424
O             0.304376      0.080174      0.345080
O            -0.043533      0.075120     -0.356149
O            -0.450359      0.246830      0.397439
O             0.038209      0.254410      0.375262
O             0.454912      0.098780     -0.408010
Fe            0.139826      0.406129     -0.257361
Lu            0.356407     -0.405145      0.477736
Fe           -0.128770     -0.422266      0.276264
Fe           -0.347922      0.409906     -0.477457
H            -0.078290      0.402768     -0.462133
H            -0.403023     -0.407430      0.300501
H             0.095434     -0.438758      0.474931
H             0.415673      0.405114     -0.291406
O            -0.198916      0.419481      0.399850
O            -0.293411     -0.407299     -0.355303
O             0.169784     -0.435851     -0.404189
O             0.313686      0.429093      0.331364
O            -0.046188      0.400178     -0.362929
O            -0.437302     -0.402577      0.398051
O             0.049620     -0.450274      0.374706
O             0.453854      0.410563     -0.388597
H            -0.311888     -0.326132      0.125644
H            -0.389677     -0.176018     -0.095294
H             0.095240      0.338981      0.082274
H             0.250456      0.416754      0.254547
data_nwchem_pspw

_audit_creation_date   Sat Sep  7 10:20:03 2024
_audit_creation_method    generated by PSPW module of NWChem


_cell_length_a            10.0667
_cell_length_b             9.1552
_cell_length_c             9.2041
_cell_angle_alpha         90.0000
_cell_angle_beta          90.0000
_cell_angle_gamma         90.0000

_symmetry_space_group_name_H-M     P1  

loop_
_atom_site_type_symbol
_atom_site_fract_x
_atom_site_fract_y
_atom_site_fract_z
Fe            0.126808     -0.275799      0.202156
Fe            0.344390     -0.080904     -0.011421
Fe           -0.159920     -0.083249     -0.226800
H            -0.375383     -0.155760      0.118043
H            -0.136338     -0.254507     -0.008149
H            -0.414009     -0.069977     -0.233967
H             0.087569     -0.058086     -0.030066
H             0.404958     -0.228916      0.199344
O            -0.203649     -0.257247     -0.086618
O            -0.306472     -0.088721      0.146336
O             0.186155     -0.087292      0.095067
O             0.301834     -0.234309     -0.169348
O            -0.058220     -0.259155      0.146006
O            -0.437657     -0.069878     -0.121773
O             0.048022     -0.085528     -0.125783
O             0.451098     -0.216882      0.103863
Fe            0.150559      0.073947      0.246837
Lu            0.342091      0.274058     -0.006037
Fe           -0.152005      0.257415     -0.242512
Fe           -0.342025      0.101478      0.049065
H            -0.084693      0.064533      0.048050
H            -0.394430      0.221305     -0.180114
H             0.076542      0.240858     -0.041655
H             0.400718      0.076963      0.215181
O            -0.201961      0.090824     -0.097615
O            -0.301215      0.268685      0.156636
O             0.153587      0.273856      0.117032
O             0.307798      0.072113     -0.137395
O            -0.054050      0.065098      0.148232
O            -0.439139      0.250336     -0.087116
O             0.056537      0.253679     -0.144799
O             0.442401      0.091744      0.119678
H             0.087680      0.467278      0.352414
Fe            0.362397     -0.385091     -0.030453
Fe           -0.152512     -0.418257     -0.234390
Fe           -0.347714      0.428953      0.002939
H            -0.084939      0.424146      0.061267
H            -0.407280     -0.418968     -0.205295
H             0.062708     -0.401339     -0.054632
H             0.455552      0.427502      0.208302
O            -0.183493      0.417651     -0.106802
O            -0.294170     -0.414839      0.147376
O             0.198576     -0.410044      0.075054
O             0.319894      0.440760     -0.164202
O            -0.047335      0.410090      0.157699
O            -0.448008     -0.418696     -0.109721
O             0.038799     -0.415544     -0.156053
O             0.462426      0.436524      0.104555
Fe            0.136208     -0.234764     -0.267683
Fe            0.357195     -0.089421      0.480108
Fe           -0.119570     -0.114466      0.270522
Fe           -0.366696     -0.262074     -0.486148
H            -0.081073     -0.242957     -0.456658
H            -0.398440     -0.065616      0.288483
H             0.091255     -0.101143      0.466645
H             0.402223     -0.258056     -0.307476
O            -0.195734     -0.260891      0.411857
O            -0.314186     -0.094511     -0.353255
O             0.206891     -0.090103     -0.403118
O             0.302279     -0.230475      0.338636
O            -0.051614     -0.212769     -0.360568
O            -0.437149     -0.084991      0.385689
O             0.066951     -0.109091      0.365196
O             0.446375     -0.262937     -0.404534
Fe            0.147386      0.081031     -0.265925
Fe            0.363441      0.248870      0.488825
Fe           -0.123488      0.248444      0.289855
Fe           -0.351870      0.070666     -0.498333
H            -0.093554      0.066418     -0.448320
H            -0.389489      0.257887      0.299806
H             0.092692      0.215436      0.473525
H             0.416522      0.096118     -0.287345
O            -0.197826      0.070421      0.376164
O            -0.298182      0.240957     -0.354910
O             0.207655      0.244955     -0.393922
O             0.314480      0.078299      0.358450
O            -0.050616      0.065213     -0.352979
O            -0.439949      0.247003      0.391782
O             0.064283      0.233351      0.374009
O             0.445149      0.087691     -0.388478
Fe            0.149003      0.416738     -0.253175
Lu            0.343294     -0.425869      0.444129
Fe           -0.141833     -0.429075      0.285072
Fe           -0.341564      0.408531     -0.467985
H            -0.032431      0.400082     -0.451898
H            -0.411535     -0.431626      0.277318
H             0.123188     -0.412675     -0.463988
H             0.416246      0.415196     -0.301041
O            -0.192838      0.410774      0.405154
O            -0.300983     -0.428712     -0.348964
O             0.188912     -0.421124     -0.389891
O             0.294491      0.388349      0.334199
O            -0.041099      0.419693     -0.349902
O            -0.452878     -0.435560      0.372421
O             0.070538     -0.431723      0.367662
O             0.456228      0.428718     -0.396229
H            -0.287694     -0.342443      0.070284
H            -0.381573     -0.150511     -0.088607
H             0.090662      0.348664      0.133547
H             0.245404      0.349569      0.252260