data_nwchem_pspw

_audit_creation_date   Tue Sep 27 16:56:59 2022
_audit_creation_method    generated by PSPW module of NWChem


_cell_length_a            10.0667
_cell_length_b             9.1552
_cell_length_c             9.2041
_cell_angle_alpha         90.0000
_cell_angle_beta          90.0000
_cell_angle_gamma         90.0000

_symmetry_space_group_name_H-M     P1  

loop_
_atom_site_type_symbol
_atom_site_fract_x
_atom_site_fract_y
_atom_site_fract_z
H             0.146735     -0.250000      0.224756
Fe            0.353175     -0.083327     -0.025375
Fe           -0.146825     -0.083327     -0.224625
Fe           -0.353265     -0.250000      0.025244
H            -0.085221     -0.250000      0.049134
H            -0.414737     -0.083030     -0.201101
H             0.085263     -0.083030     -0.048899
H             0.414779     -0.250000      0.200866
O            -0.196748     -0.250000     -0.095276
O            -0.303195     -0.083277      0.154599
O             0.196805     -0.083277      0.095401
O             0.303252     -0.250000     -0.154724
O            -0.053396     -0.250000      0.148894
O            -0.446594     -0.082953     -0.101355
O             0.053406     -0.082954     -0.148645
O             0.446604     -0.250000      0.101106
Fe            0.146825      0.083327      0.224625
Fe            0.353265      0.250000     -0.025244
Fe           -0.146735      0.250000     -0.224756
Fe           -0.353175      0.083327      0.025375
H            -0.085263      0.083030      0.048899
H            -0.414779      0.250000     -0.200866
H             0.085221      0.250000     -0.049134
H             0.414737      0.083030      0.201101
O            -0.196805      0.083277     -0.095401
O            -0.303252      0.250000      0.154724
O             0.196748      0.250000      0.095276
O             0.303195      0.083277     -0.154599
O            -0.053406      0.082954      0.148645
O            -0.446604      0.250000     -0.101106
O             0.053396      0.250000     -0.148894
O             0.446594      0.082953      0.101355
Fe            0.146825      0.416673      0.224625
Fe            0.353175     -0.416673     -0.025375
Fe           -0.146825     -0.416673     -0.224625
Fe           -0.353175      0.416673      0.025375
H            -0.085263      0.416970      0.048899
H            -0.414737     -0.416970     -0.201101
H             0.085263     -0.416970     -0.048899
H             0.414737      0.416970      0.201101
O            -0.196805      0.416723     -0.095401
O            -0.303195     -0.416723      0.154599
O             0.196805     -0.416723      0.095401
O             0.303195      0.416723     -0.154599
O            -0.053406      0.417047      0.148645
O            -0.446594     -0.417047     -0.101355
O             0.053406     -0.417047     -0.148645
O             0.446594      0.417046      0.101355
Fe            0.146735     -0.250000     -0.275244
Fe            0.353175     -0.083327      0.474625
Fe           -0.146825     -0.083327      0.275375
Fe           -0.353265     -0.250000     -0.474756
H            -0.085221     -0.250000     -0.450866
H            -0.414737     -0.083030      0.298899
H             0.085263     -0.083030      0.451101
H             0.414779     -0.250000     -0.299134
O            -0.196748     -0.250000      0.404724
O            -0.303195     -0.083277     -0.345401
O             0.196805     -0.083277     -0.404599
O             0.303252     -0.250000      0.345276
O            -0.053396     -0.250000     -0.351106
O            -0.446594     -0.082953      0.398645
O             0.053406     -0.082954      0.351355
O             0.446604     -0.250000     -0.398894
Fe            0.146825      0.083327     -0.275375
Fe            0.353265      0.250000      0.474756
Fe           -0.146735      0.250000      0.275244
Fe           -0.353175      0.083327     -0.474625
H            -0.085263      0.083030     -0.451101
H            -0.414779      0.250000      0.299134
H             0.085221      0.250000      0.450866
H             0.414737      0.083030     -0.298899
O            -0.196805      0.083277      0.404599
O            -0.303252      0.250000     -0.345276
O             0.196748      0.250000     -0.404724
O             0.303195      0.083277      0.345401
O            -0.053406      0.082954     -0.351355
O            -0.446604      0.250000      0.398894
O             0.053396      0.250000      0.351106
O             0.446594      0.082953     -0.398645
Fe            0.146825      0.416673     -0.275375
Ni            0.353175     -0.416673      0.474625
Fe           -0.146825     -0.416673      0.275375
Fe           -0.353175      0.416673     -0.474625
H            -0.085263      0.416970     -0.451101
H            -0.414737     -0.416970      0.298899
H             0.085263     -0.416970      0.451101
H             0.414737      0.416970     -0.298899
O            -0.196805      0.416723      0.404599
O            -0.303195     -0.416723     -0.345401
O             0.196805     -0.416723     -0.404599
O             0.303195      0.416723      0.345401
O            -0.053406      0.417047     -0.351355
O            -0.446594     -0.417047      0.398645
O             0.053406     -0.417047      0.351355
O             0.446594      0.417046     -0.398645
H             0.451134     -0.207847      0.346694
H             0.046735     -0.250000      0.214756
H             0.146735     -0.150000      0.234756
data_nwchem_pspw

_audit_creation_date   Tue Sep 27 17:01:30 2022
_audit_creation_method    generated by PSPW module of NWChem


_cell_length_a            10.0667
_cell_length_b             9.1552
_cell_length_c             9.2041
_cell_angle_alpha         90.0000
_cell_angle_beta          90.0000
_cell_angle_gamma         90.0000

_symmetry_space_group_name_H-M     P1  

loop_
_atom_site_type_symbol
_atom_site_fract_x
_atom_site_fract_y
_atom_site_fract_z
H             0.146735     -0.250000      0.224756
Fe            0.353175     -0.083327     -0.025375
Fe           -0.146825     -0.083327     -0.224625
Fe           -0.353265     -0.250000      0.025244
H            -0.085221     -0.250000      0.049134
H            -0.414737     -0.083030     -0.201101
H             0.085263     -0.083030     -0.048899
H             0.414779     -0.250000      0.200866
O            -0.196748     -0.250000     -0.095276
O            -0.303195     -0.083277      0.154599
O             0.196805     -0.083277      0.095401
O             0.303252     -0.250000     -0.154724
O            -0.053396     -0.250000      0.148894
O            -0.446594     -0.082953     -0.101355
O             0.053406     -0.082954     -0.148645
O             0.446604     -0.250000      0.101106
Fe            0.146825      0.083327      0.224625
Fe            0.353265      0.250000     -0.025244
Fe           -0.146735      0.250000     -0.224756
Fe           -0.353175      0.083327      0.025375
H            -0.085263      0.083030      0.048899
H            -0.414779      0.250000     -0.200866
H             0.085221      0.250000     -0.049134
H             0.414737      0.083030      0.201101
O            -0.196805      0.083277     -0.095401
O            -0.303252      0.250000      0.154724
O             0.196748      0.250000      0.095276
O             0.303195      0.083277     -0.154599
O            -0.053406      0.082954      0.148645
O            -0.446604      0.250000     -0.101106
O             0.053396      0.250000     -0.148894
O             0.446594      0.082953      0.101355
Fe            0.146825      0.416673      0.224625
Fe            0.353175     -0.416673     -0.025375
Fe           -0.146825     -0.416673     -0.224625
Fe           -0.353175      0.416673      0.025375
H            -0.085263      0.416970      0.048899
H            -0.414737     -0.416970     -0.201101
H             0.085263     -0.416970     -0.048899
H             0.414737      0.416970      0.201101
O            -0.196805      0.416723     -0.095401
O            -0.303195     -0.416723      0.154599
O             0.196805     -0.416723      0.095401
O             0.303195      0.416723     -0.154599
O            -0.053406      0.417047      0.148645
O            -0.446594     -0.417047     -0.101355
O             0.053406     -0.417047     -0.148645
O             0.446594      0.417046      0.101355
Fe            0.146735     -0.250000     -0.275244
Fe            0.353175     -0.083327      0.474625
Fe           -0.146825     -0.083327      0.275375
Fe           -0.353265     -0.250000     -0.474756
H            -0.085221     -0.250000     -0.450866
H            -0.414737     -0.083030      0.298899
H             0.085263     -0.083030      0.451101
H             0.414779     -0.250000     -0.299134
O            -0.196748     -0.250000      0.404724
O            -0.303195     -0.083277     -0.345401
O             0.196805     -0.083277     -0.404599
O             0.303252     -0.250000      0.345276
O            -0.053396     -0.250000     -0.351106
O            -0.446594     -0.082953      0.398645
O             0.053406     -0.082954      0.351355
O             0.446604     -0.250000     -0.398894
Fe            0.146825      0.083327     -0.275375
Fe            0.353265      0.250000      0.474756
Fe           -0.146735      0.250000      0.275244
Fe           -0.353175      0.083327     -0.474625
H            -0.085263      0.083030     -0.451101
H            -0.414779      0.250000      0.299134
H             0.085221      0.250000      0.450866
H             0.414737      0.083030     -0.298899
O            -0.196805      0.083277      0.404599
O            -0.303252      0.250000     -0.345276
O             0.196748      0.250000     -0.404724
O             0.303195      0.083277      0.345401
O            -0.053406      0.082954     -0.351355
O            -0.446604      0.250000      0.398894
O             0.053396      0.250000      0.351106
O             0.446594      0.082953     -0.398645
Fe            0.146825      0.416673     -0.275375
Ni            0.353175     -0.416673      0.474625
Fe           -0.146825     -0.416673      0.275375
Fe           -0.353175      0.416673     -0.474625
H            -0.085263      0.416970     -0.451101
H            -0.414737     -0.416970      0.298899
H             0.085263     -0.416970      0.451101
H             0.414737      0.416970     -0.298899
O            -0.196805      0.416723      0.404599
O            -0.303195     -0.416723     -0.345401
O             0.196805     -0.416723     -0.404599
O             0.303195      0.416723      0.345401
O            -0.053406      0.417047     -0.351355
O            -0.446594     -0.417047      0.398645
O             0.053406     -0.417047      0.351355
O             0.446594      0.417046     -0.398645
H             0.451134     -0.207847      0.346694
H             0.046735     -0.250000      0.214756
H             0.146735     -0.150000      0.234756
data_nwchem_pspw

_audit_creation_date   Tue Sep 27 17:03:56 2022
_audit_creation_method    generated by PSPW module of NWChem


_cell_length_a            10.0667
_cell_length_b             9.1552
_cell_length_c             9.2041
_cell_angle_alpha         90.0000
_cell_angle_beta          90.0000
_cell_angle_gamma         90.0000

_symmetry_space_group_name_H-M     P1  

loop_
_atom_site_type_symbol
_atom_site_fract_x
_atom_site_fract_y
_atom_site_fract_z
H             0.146735     -0.250000      0.224756
Fe            0.353175     -0.083327     -0.025375
Fe           -0.146825     -0.083327     -0.224625
Fe           -0.353265     -0.250000      0.025244
H            -0.085221     -0.250000      0.049134
H            -0.414737     -0.083030     -0.201101
H             0.085263     -0.083030     -0.048899
H             0.414779     -0.250000      0.200866
O            -0.196748     -0.250000     -0.095276
O            -0.303195     -0.083277      0.154599
O             0.196805     -0.083277      0.095401
O             0.303252     -0.250000     -0.154724
O            -0.053396     -0.250000      0.148894
O            -0.446594     -0.082953     -0.101355
O             0.053406     -0.082954     -0.148645
O             0.446604     -0.250000      0.101106
Fe            0.146825      0.083327      0.224625
Fe            0.353265      0.250000     -0.025244
Fe           -0.146735      0.250000     -0.224756
Fe           -0.353175      0.083327      0.025375
H            -0.085263      0.083030      0.048899
H            -0.414779      0.250000     -0.200866
H             0.085221      0.250000     -0.049134
H             0.414737      0.083030      0.201101
O            -0.196805      0.083277     -0.095401
O            -0.303252      0.250000      0.154724
O             0.196748      0.250000      0.095276
O             0.303195      0.083277     -0.154599
O            -0.053406      0.082954      0.148645
O            -0.446604      0.250000     -0.101106
O             0.053396      0.250000     -0.148894
O             0.446594      0.082953      0.101355
Fe            0.146825      0.416673      0.224625
Fe            0.353175     -0.416673     -0.025375
Fe           -0.146825     -0.416673     -0.224625
Fe           -0.353175      0.416673      0.025375
H            -0.085263      0.416970      0.048899
H            -0.414737     -0.416970     -0.201101
H             0.085263     -0.416970     -0.048899
H             0.414737      0.416970      0.201101
O            -0.196805      0.416723     -0.095401
O            -0.303195     -0.416723      0.154599
O             0.196805     -0.416723      0.095401
O             0.303195      0.416723     -0.154599
O            -0.053406      0.417047      0.148645
O            -0.446594     -0.417047     -0.101355
O             0.053406     -0.417047     -0.148645
O             0.446594      0.417046      0.101355
Fe            0.146735     -0.250000     -0.275244
Fe            0.353175     -0.083327      0.474625
Fe           -0.146825     -0.083327      0.275375
Fe           -0.353265     -0.250000     -0.474756
H            -0.085221     -0.250000     -0.450866
H            -0.414737     -0.083030      0.298899
H             0.085263     -0.083030      0.451101
H             0.414779     -0.250000     -0.299134
O            -0.196748     -0.250000      0.404724
O            -0.303195     -0.083277     -0.345401
O             0.196805     -0.083277     -0.404599
O             0.303252     -0.250000      0.345276
O            -0.053396     -0.250000     -0.351106
O            -0.446594     -0.082953      0.398645
O             0.053406     -0.082954      0.351355
O             0.446604     -0.250000     -0.398894
Fe            0.146825      0.083327     -0.275375
Fe            0.353265      0.250000      0.474756
Fe           -0.146735      0.250000      0.275244
Fe           -0.353175      0.083327     -0.474625
H            -0.085263      0.083030     -0.451101
H            -0.414779      0.250000      0.299134
H             0.085221      0.250000      0.450866
H             0.414737      0.083030     -0.298899
O            -0.196805      0.083277      0.404599
O            -0.303252      0.250000     -0.345276
O             0.196748      0.250000     -0.404724
O             0.303195      0.083277      0.345401
O            -0.053406      0.082954     -0.351355
O            -0.446604      0.250000      0.398894
O             0.053396      0.250000      0.351106
O             0.446594      0.082953     -0.398645
Fe            0.146825      0.416673     -0.275375
Ni            0.353175     -0.416673      0.474625
Fe           -0.146825     -0.416673      0.275375
Fe           -0.353175      0.416673     -0.474625
H            -0.085263      0.416970     -0.451101
H            -0.414737     -0.416970      0.298899
H             0.085263     -0.416970      0.451101
H             0.414737      0.416970     -0.298899
O            -0.196805      0.416723      0.404599
O            -0.303195     -0.416723     -0.345401
O             0.196805     -0.416723     -0.404599
O             0.303195      0.416723      0.345401
O            -0.053406      0.417047     -0.351355
O            -0.446594     -0.417047      0.398645
O             0.053406     -0.417047      0.351355
O             0.446594      0.417046     -0.398645
H             0.451134     -0.207847      0.346694
H             0.046735     -0.250000      0.214756
H             0.146735     -0.150000      0.234756
data_nwchem_pspw

_audit_creation_date   Tue Sep 27 17:05:14 2022
_audit_creation_method    generated by PSPW module of NWChem


_cell_length_a            10.0667
_cell_length_b             9.1552
_cell_length_c             9.2041
_cell_angle_alpha         90.0000
_cell_angle_beta          90.0000
_cell_angle_gamma         90.0000

_symmetry_space_group_name_H-M     P1  

loop_
_atom_site_type_symbol
_atom_site_fract_x
_atom_site_fract_y
_atom_site_fract_z
H             0.146735     -0.250000      0.224756
Fe            0.353175     -0.083327     -0.025375
Fe           -0.146825     -0.083327     -0.224625
Fe           -0.353265     -0.250000      0.025244
H            -0.085221     -0.250000      0.049134
H            -0.414737     -0.083030     -0.201101
H             0.085263     -0.083030     -0.048899
H             0.414779     -0.250000      0.200866
O            -0.196748     -0.250000     -0.095276
O            -0.303195     -0.083277      0.154599
O             0.196805     -0.083277      0.095401
O             0.303252     -0.250000     -0.154724
O            -0.053396     -0.250000      0.148894
O            -0.446594     -0.082953     -0.101355
O             0.053406     -0.082954     -0.148645
O             0.446604     -0.250000      0.101106
Fe            0.146825      0.083327      0.224625
Fe            0.353265      0.250000     -0.025244
Fe           -0.146735      0.250000     -0.224756
Fe           -0.353175      0.083327      0.025375
H            -0.085263      0.083030      0.048899
H            -0.414779      0.250000     -0.200866
H             0.085221      0.250000     -0.049134
H             0.414737      0.083030      0.201101
O            -0.196805      0.083277     -0.095401
O            -0.303252      0.250000      0.154724
O             0.196748      0.250000      0.095276
O             0.303195      0.083277     -0.154599
O            -0.053406      0.082954      0.148645
O            -0.446604      0.250000     -0.101106
O             0.053396      0.250000     -0.148894
O             0.446594      0.082953      0.101355
Fe            0.146825      0.416673      0.224625
Fe            0.353175     -0.416673     -0.025375
Fe           -0.146825     -0.416673     -0.224625
Fe           -0.353175      0.416673      0.025375
H            -0.085263      0.416970      0.048899
H            -0.414737     -0.416970     -0.201101
H             0.085263     -0.416970     -0.048899
H             0.414737      0.416970      0.201101
O            -0.196805      0.416723     -0.095401
O            -0.303195     -0.416723      0.154599
O             0.196805     -0.416723      0.095401
O             0.303195      0.416723     -0.154599
O            -0.053406      0.417047      0.148645
O            -0.446594     -0.417047     -0.101355
O             0.053406     -0.417047     -0.148645
O             0.446594      0.417046      0.101355
Fe            0.146735     -0.250000     -0.275244
Fe            0.353175     -0.083327      0.474625
Fe           -0.146825     -0.083327      0.275375
Fe           -0.353265     -0.250000     -0.474756
H            -0.085221     -0.250000     -0.450866
H            -0.414737     -0.083030      0.298899
H             0.085263     -0.083030      0.451101
H             0.414779     -0.250000     -0.299134
O            -0.196748     -0.250000      0.404724
O            -0.303195     -0.083277     -0.345401
O             0.196805     -0.083277     -0.404599
O             0.303252     -0.250000      0.345276
O            -0.053396     -0.250000     -0.351106
O            -0.446594     -0.082953      0.398645
O             0.053406     -0.082954      0.351355
O             0.446604     -0.250000     -0.398894
Fe            0.146825      0.083327     -0.275375
Fe            0.353265      0.250000      0.474756
Fe           -0.146735      0.250000      0.275244
Fe           -0.353175      0.083327     -0.474625
H            -0.085263      0.083030     -0.451101
H            -0.414779      0.250000      0.299134
H             0.085221      0.250000      0.450866
H             0.414737      0.083030     -0.298899
O            -0.196805      0.083277      0.404599
O            -0.303252      0.250000     -0.345276
O             0.196748      0.250000     -0.404724
O             0.303195      0.083277      0.345401
O            -0.053406      0.082954     -0.351355
O            -0.446604      0.250000      0.398894
O             0.053396      0.250000      0.351106
O             0.446594      0.082953     -0.398645
Fe            0.146825      0.416673     -0.275375
Ni            0.353175     -0.416673      0.474625
Fe           -0.146825     -0.416673      0.275375
Fe           -0.353175      0.416673     -0.474625
H            -0.085263      0.416970     -0.451101
H            -0.414737     -0.416970      0.298899
H             0.085263     -0.416970      0.451101
H             0.414737      0.416970     -0.298899
O            -0.196805      0.416723      0.404599
O            -0.303195     -0.416723     -0.345401
O             0.196805     -0.416723     -0.404599
O             0.303195      0.416723      0.345401
O            -0.053406      0.417047     -0.351355
O            -0.446594     -0.417047      0.398645
O             0.053406     -0.417047      0.351355
O             0.446594      0.417046     -0.398645
H             0.451134     -0.207847      0.346694
H             0.046735     -0.250000      0.214756
H             0.146735     -0.150000      0.234756
data_nwchem_pspw

_audit_creation_date   Tue Sep 27 17:36:16 2022
_audit_creation_method    generated by PSPW module of NWChem


_cell_length_a            10.0667
_cell_length_b             9.1552
_cell_length_c             9.2041
_cell_angle_alpha         90.0000
_cell_angle_beta          90.0000
_cell_angle_gamma         90.0000

_symmetry_space_group_name_H-M     P1  

loop_
_atom_site_type_symbol
_atom_site_fract_x
_atom_site_fract_y
_atom_site_fract_z
H             0.146735     -0.250000      0.224756
Fe            0.353175     -0.083327     -0.025375
Fe           -0.146825     -0.083327     -0.224625
Fe           -0.353265     -0.250000      0.025244
H            -0.085221     -0.250000      0.049134
H            -0.414737     -0.083030     -0.201101
H             0.085263     -0.083030     -0.048899
H             0.414779     -0.250000      0.200866
O            -0.196748     -0.250000     -0.095276
O            -0.303195     -0.083277      0.154599
O             0.196805     -0.083277      0.095401
O             0.303252     -0.250000     -0.154724
O            -0.053396     -0.250000      0.148894
O            -0.446594     -0.082953     -0.101355
O             0.053406     -0.082954     -0.148645
O             0.446604     -0.250000      0.101106
Fe            0.146825      0.083327      0.224625
Fe            0.353265      0.250000     -0.025244
Fe           -0.146735      0.250000     -0.224756
Fe           -0.353175      0.083327      0.025375
H            -0.085263      0.083030      0.048899
H            -0.414779      0.250000     -0.200866
H             0.085221      0.250000     -0.049134
H             0.414737      0.083030      0.201101
O            -0.196805      0.083277     -0.095401
O            -0.303252      0.250000      0.154724
O             0.196748      0.250000      0.095276
O             0.303195      0.083277     -0.154599
O            -0.053406      0.082954      0.148645
O            -0.446604      0.250000     -0.101106
O             0.053396      0.250000     -0.148894
O             0.446594      0.082953      0.101355
Fe            0.146825      0.416673      0.224625
Fe            0.353175     -0.416673     -0.025375
Fe           -0.146825     -0.416673     -0.224625
Fe           -0.353175      0.416673      0.025375
H            -0.085263      0.416970      0.048899
H            -0.414737     -0.416970     -0.201101
H             0.085263     -0.416970     -0.048899
H             0.414737      0.416970      0.201101
O            -0.196805      0.416723     -0.095401
O            -0.303195     -0.416723      0.154599
O             0.196805     -0.416723      0.095401
O             0.303195      0.416723     -0.154599
O            -0.053406      0.417047      0.148645
O            -0.446594     -0.417047     -0.101355
O             0.053406     -0.417047     -0.148645
O             0.446594      0.417046      0.101355
Fe            0.146735     -0.250000     -0.275244
Fe            0.353175     -0.083327      0.474625
Fe           -0.146825     -0.083327      0.275375
Fe           -0.353265     -0.250000     -0.474756
H            -0.085221     -0.250000     -0.450866
H            -0.414737     -0.083030      0.298899
H             0.085263     -0.083030      0.451101
H             0.414779     -0.250000     -0.299134
O            -0.196748     -0.250000      0.404724
O            -0.303195     -0.083277     -0.345401
O             0.196805     -0.083277     -0.404599
O             0.303252     -0.250000      0.345276
O            -0.053396     -0.250000     -0.351106
O            -0.446594     -0.082953      0.398645
O             0.053406     -0.082954      0.351355
O             0.446604     -0.250000     -0.398894
Fe            0.146825      0.083327     -0.275375
Fe            0.353265      0.250000      0.474756
Fe           -0.146735      0.250000      0.275244
Fe           -0.353175      0.083327     -0.474625
H            -0.085263      0.083030     -0.451101
H            -0.414779      0.250000      0.299134
H             0.085221      0.250000      0.450866
H             0.414737      0.083030     -0.298899
O            -0.196805      0.083277      0.404599
O            -0.303252      0.250000     -0.345276
O             0.196748      0.250000     -0.404724
O             0.303195      0.083277      0.345401
O            -0.053406      0.082954     -0.351355
O            -0.446604      0.250000      0.398894
O             0.053396      0.250000      0.351106
O             0.446594      0.082953     -0.398645
Fe            0.146825      0.416673     -0.275375
Ni            0.353175     -0.416673      0.474625
Fe           -0.146825     -0.416673      0.275375
Fe           -0.353175      0.416673     -0.474625
H            -0.085263      0.416970     -0.451101
H            -0.414737     -0.416970      0.298899
H             0.085263     -0.416970      0.451101
H             0.414737      0.416970     -0.298899
O            -0.196805      0.416723      0.404599
O            -0.303195     -0.416723     -0.345401
O             0.196805     -0.416723     -0.404599
O             0.303195      0.416723      0.345401
O            -0.053406      0.417047     -0.351355
O            -0.446594     -0.417047      0.398645
O             0.053406     -0.417047      0.351355
O             0.446594      0.417046     -0.398645
H             0.451134     -0.207847      0.346694
H             0.046735     -0.250000      0.214756
H             0.146735     -0.150000      0.234756
data_nwchem_pspw

_audit_creation_date   Thu Sep 29 03:01:33 2022
_audit_creation_method    generated by PSPW module of NWChem


_cell_length_a            10.0667
_cell_length_b             9.1552
_cell_length_c             9.2041
_cell_angle_alpha         90.0000
_cell_angle_beta          90.0000
_cell_angle_gamma         90.0000

_symmetry_space_group_name_H-M     P1  

loop_
_atom_site_type_symbol
_atom_site_fract_x
_atom_site_fract_y
_atom_site_fract_z
H             0.260141     -0.369918      0.193988
Fe            0.371291     -0.095071     -0.046923
Fe           -0.144244     -0.072170     -0.230818
Fe           -0.344296     -0.252876      0.045231
H            -0.111776     -0.234547      0.026739
H            -0.398618     -0.090390     -0.211158
H             0.086877     -0.099990     -0.053045
H             0.404265     -0.224351      0.201521
O            -0.191315     -0.232478     -0.090770
O            -0.294164     -0.073766      0.157678
O             0.193806     -0.098118      0.084604
O             0.303689     -0.263156     -0.168864
O            -0.059058     -0.243108      0.136518
O            -0.436061     -0.091884     -0.109617
O             0.055073     -0.081115     -0.158600
O             0.449128     -0.242579      0.102314
Fe            0.134198      0.084667      0.243705
Fe            0.349815      0.247177     -0.015956
Fe           -0.142885      0.259609     -0.223753
Fe           -0.352244      0.076846      0.021214
H            -0.058658      0.076155      0.059550
H            -0.419283      0.259482     -0.196544
H             0.086105      0.257028     -0.049648
H             0.415514      0.082242      0.191330
O            -0.182607      0.090323     -0.090148
O            -0.305679      0.241681      0.154534
O             0.175675      0.231605      0.085494
O             0.301183      0.080779     -0.157380
O            -0.051500      0.069037      0.162425
O            -0.453928      0.256126     -0.097554
O             0.049995      0.252023     -0.150430
O             0.446447      0.076961      0.091281
Fe            0.150741      0.415572      0.233330
Fe            0.368833     -0.422263     -0.041398
Fe           -0.142825     -0.413577     -0.215262
Fe           -0.354284      0.409639      0.029157
H            -0.094980      0.427777      0.058978
H            -0.410430     -0.399641     -0.189553
H             0.074116     -0.429130     -0.051679
H             0.433448      0.437844      0.203730
O            -0.203050      0.413055     -0.092296
O            -0.299895     -0.424445      0.168422
O             0.216455     -0.410297      0.100181
O             0.309797      0.404523     -0.161006
O            -0.056859      0.416913      0.153201
O            -0.439622     -0.410909     -0.089486
O             0.053108     -0.407579     -0.153374
O             0.441464      0.421181      0.102583
Fe            0.143382     -0.256676     -0.280651
Fe            0.351881     -0.084888      0.467375
Fe           -0.147043     -0.075360      0.291597
Fe           -0.359504     -0.245590     -0.479012
H            -0.088774     -0.250918     -0.451383
H            -0.417750     -0.087945      0.299321
H             0.077241     -0.047041      0.456582
H             0.398622     -0.269722     -0.315063
O            -0.192998     -0.241910      0.413883
O            -0.309885     -0.083254     -0.349022
O             0.191315     -0.085638     -0.422899
O             0.292844     -0.257682      0.337872
O            -0.057881     -0.249748     -0.350900
O            -0.457174     -0.082146      0.391554
O             0.046132     -0.079324      0.362053
O             0.436637     -0.257796     -0.410041
Fe            0.147563      0.076518     -0.282126
Fe            0.353328      0.254803      0.459882
Fe           -0.149616      0.256681      0.268694
Fe           -0.364346      0.086350     -0.465472
H            -0.103885      0.108763     -0.457474
H            -0.416381      0.247473      0.298966
H             0.087788      0.260219      0.461098
H             0.393505      0.095745     -0.306341
O            -0.204783      0.091868      0.401728
O            -0.313878      0.251756     -0.332580
O             0.193264      0.247118     -0.407320
O             0.304046      0.075774      0.333148
O            -0.059826      0.092445     -0.361735
O            -0.447944      0.249490      0.398514
O             0.048617      0.276311      0.364099
O             0.439307      0.088612     -0.402297
Fe            0.140971      0.414300     -0.280042
Ni            0.367739     -0.422866      0.475003
Fe           -0.131455     -0.414172      0.288296
Fe           -0.367966      0.423704     -0.462129
H            -0.091925      0.404164     -0.442523
H            -0.417159     -0.437242      0.304595
H             0.086238     -0.397626      0.434930
H             0.397482      0.386935     -0.302500
O            -0.198111      0.406990      0.411585
O            -0.301254     -0.408117     -0.333057
O             0.198779     -0.423751     -0.417183
O             0.317461      0.430872      0.336532
O            -0.063570      0.427450     -0.344533
O            -0.451814     -0.419537      0.399162
O             0.056268     -0.422811      0.340260
O             0.442076      0.408675     -0.395910
H             0.206858     -0.259622      0.360447
H             0.031160     -0.205789      0.118541
H             0.208445     -0.184913      0.145321
data_nwchem_pspw

_audit_creation_date   Thu Sep 29 05:26:17 2022
_audit_creation_method    generated by PSPW module of NWChem


_cell_length_a            10.0667
_cell_length_b             9.1552
_cell_length_c             9.2041
_cell_angle_alpha         90.0000
_cell_angle_beta          90.0000
_cell_angle_gamma         90.0000

_symmetry_space_group_name_H-M     P1  

loop_
_atom_site_type_symbol
_atom_site_fract_x
_atom_site_fract_y
_atom_site_fract_z
H             0.230358     -0.350771      0.203135
Fe            0.359412     -0.076792     -0.040746
Fe           -0.145530     -0.082599     -0.221519
Fe           -0.360605     -0.259338      0.014576
H            -0.083554     -0.272540      0.039137
H            -0.415706     -0.085529     -0.200369
H             0.078937     -0.093794     -0.050225
H             0.424594     -0.242374      0.201714
O            -0.185497     -0.247131     -0.085936
O            -0.312625     -0.088416      0.160918
O             0.204003     -0.073663      0.100425
O             0.310064     -0.242661     -0.161260
O            -0.047224     -0.249611      0.135653
O            -0.451543     -0.093621     -0.103292
O             0.060551     -0.073721     -0.147086
O             0.446267     -0.242885      0.095381
Fe            0.144211      0.086193      0.230011
Fe            0.357369      0.256945     -0.011754
Fe           -0.146217      0.254586     -0.233325
Fe           -0.351216      0.082228      0.031203
H            -0.085499      0.079293      0.037495
H            -0.399414      0.239127     -0.211063
H             0.080393      0.270658     -0.043792
H             0.411930      0.084491      0.204809
O            -0.193029      0.075165     -0.091598
O            -0.313806      0.243001      0.159542
O             0.180206      0.264127      0.090907
O             0.295202      0.097508     -0.154145
O            -0.052321      0.083637      0.139718
O            -0.431783      0.244519     -0.103928
O             0.054434      0.256740     -0.147507
O             0.445958      0.095593      0.101419
Fe            0.149376      0.418564      0.235055
Fe            0.363476     -0.407048     -0.036302
Fe           -0.145122     -0.410163     -0.221750
Fe           -0.357750      0.406298      0.033748
H            -0.083201      0.403710      0.059410
H            -0.399486     -0.424724     -0.205303
H             0.088810     -0.404570     -0.037834
H             0.421976      0.445682      0.210024
O            -0.198778      0.409622     -0.094113
O            -0.301501     -0.420030      0.161394
O             0.182204     -0.399559      0.113876
O             0.316374      0.416819     -0.161244
O            -0.049101      0.434188      0.151811
O            -0.437853     -0.415565     -0.106966
O             0.060590     -0.411890     -0.141147
O             0.453208      0.426160      0.107872
Fe            0.153431     -0.247290     -0.288076
Fe            0.351393     -0.084191      0.486316
Fe           -0.148626     -0.088456      0.281940
Fe           -0.362468     -0.268778     -0.471391
H            -0.073764     -0.221540     -0.444666
H            -0.416524     -0.086677      0.308374
H             0.069306     -0.072303      0.445828
H             0.410719     -0.252043     -0.315850
O            -0.216804     -0.255318      0.398797
O            -0.303799     -0.093848     -0.348805
O             0.193964     -0.074111     -0.405551
O             0.288610     -0.258757      0.331003
O            -0.054120     -0.246946     -0.344910
O            -0.458170     -0.095751      0.406170
O             0.051172     -0.091758      0.345816
O             0.447557     -0.254682     -0.412080
Fe            0.141079      0.087605     -0.279054
Fe            0.353960      0.251134      0.466913
Fe           -0.141223      0.252392      0.277109
Fe           -0.356440      0.078572     -0.474944
H            -0.082034      0.071975     -0.452394
H            -0.390876      0.247176      0.298920
H             0.088132      0.242787      0.453100
H             0.410051      0.116234     -0.298069
O            -0.189106      0.075461      0.403295
O            -0.312435      0.254742     -0.341737
O             0.195881      0.263762     -0.410720
O             0.306357      0.083068      0.354559
O            -0.056043      0.077254     -0.352886
O            -0.440373      0.238904      0.389025
O             0.048286      0.242821      0.354985
O             0.445722      0.089280     -0.393239
Fe            0.146765      0.424489     -0.269399
Ni            0.364912     -0.417983      0.468169
Fe           -0.138975     -0.420261      0.287855
Fe           -0.363315      0.411671     -0.485941
H            -0.084669      0.420072     -0.451465
H            -0.410813     -0.403274      0.304594
H             0.096737     -0.414983      0.462874
H             0.415036      0.412419     -0.310318
O            -0.203305      0.408300      0.409683
O            -0.303751     -0.426543     -0.346588
O             0.193939     -0.408994     -0.411925
O             0.299300      0.420452      0.350118
O            -0.059432      0.424349     -0.344929
O            -0.456566     -0.428398      0.396061
O             0.050588     -0.435893      0.367026
O             0.450976      0.423989     -0.409298
H             0.198452     -0.235567      0.363269
H             0.039731     -0.280191      0.145718
H             0.211071     -0.144806      0.177412
data_nwchem_pspw

_audit_creation_date   Thu Sep 29 08:24:54 2022
_audit_creation_method    generated by PSPW module of NWChem


_cell_length_a            10.0667
_cell_length_b             9.1552
_cell_length_c             9.2041
_cell_angle_alpha         90.0000
_cell_angle_beta          90.0000
_cell_angle_gamma         90.0000

_symmetry_space_group_name_H-M     P1  

loop_
_atom_site_type_symbol
_atom_site_fract_x
_atom_site_fract_y
_atom_site_fract_z
H             0.243897     -0.366468      0.204203
Fe            0.358597     -0.074064     -0.052914
Fe           -0.138659     -0.096438     -0.215338
Fe           -0.351901     -0.253630      0.026023
H            -0.120450     -0.282938     -0.009161
H            -0.412281     -0.087793     -0.223728
H             0.086731     -0.084832     -0.031739
H             0.431815     -0.229653      0.175421
O            -0.189474     -0.272930     -0.086602
O            -0.305690     -0.089957      0.158018
O             0.205736     -0.063263      0.079748
O             0.296510     -0.245400     -0.153284
O            -0.055909     -0.248568      0.134601
O            -0.442599     -0.088525     -0.115272
O             0.051589     -0.081972     -0.126480
O             0.439890     -0.238034      0.073367
Fe            0.145477      0.092318      0.224881
Fe            0.356792      0.262648     -0.022600
Fe           -0.151401      0.233637     -0.210737
Fe           -0.365842      0.068096      0.031393
H            -0.088968      0.083172      0.041830
H            -0.427212      0.243819     -0.190038
H             0.093650      0.253854     -0.052986
H             0.409012      0.058561      0.188381
O            -0.197731      0.062095     -0.083514
O            -0.306206      0.245329      0.149381
O             0.183055      0.260417      0.095588
O             0.302980      0.096069     -0.156270
O            -0.056909      0.084789      0.142804
O            -0.455006      0.256791     -0.091186
O             0.065960      0.256431     -0.155775
O             0.440516      0.074772      0.088782
Fe            0.131440      0.423374      0.233158
Fe            0.350848     -0.414866     -0.035333
Fe           -0.142165     -0.438407     -0.237375
Fe           -0.354826      0.416325      0.039450
H            -0.095278      0.416816      0.034057
H            -0.426698     -0.414088     -0.195906
H             0.070685     -0.401030     -0.045777
H             0.390629      0.396332      0.200194
O            -0.204464      0.405619     -0.094287
O            -0.301208     -0.416593      0.159372
O             0.212095     -0.407591      0.116704
O             0.300012      0.425920     -0.151211
O            -0.054518      0.407813      0.137837
O            -0.441561     -0.423998     -0.094638
O             0.054880     -0.426206     -0.142535
O             0.445086      0.406640      0.111031
Fe            0.143316     -0.234114     -0.284294
Fe            0.363417     -0.079524      0.483488
Fe           -0.135891     -0.081794      0.279211
Fe           -0.351841     -0.247773     -0.479993
H            -0.067788     -0.237798     -0.456507
H            -0.432201     -0.091350      0.296708
H             0.097795     -0.071721      0.441821
H             0.413975     -0.252945     -0.282153
O            -0.189158     -0.245777      0.407459
O            -0.312048     -0.087576     -0.335590
O             0.204163     -0.075412     -0.401080
O             0.310242     -0.256982      0.338677
O            -0.051585     -0.242018     -0.354483
O            -0.441647     -0.082430      0.401429
O             0.068550     -0.086122      0.345804
O             0.450930     -0.259585     -0.380366
Fe            0.140718      0.094774     -0.272281
Fe            0.350589      0.253327      0.460129
Fe           -0.148454      0.248884      0.270411
Fe           -0.353739      0.087140     -0.468388
H            -0.084957      0.070379     -0.441665
H            -0.411315      0.244479      0.302065
H             0.093612      0.248490      0.456166
H             0.421467      0.094484     -0.294977
O            -0.201228      0.083875      0.401186
O            -0.304656      0.252574     -0.344790
O             0.198781      0.252671     -0.410422
O             0.317418      0.068234      0.326716
O            -0.057060      0.074173     -0.340082
O            -0.452299      0.232793      0.396157
O             0.057308      0.247335      0.355550
O             0.448697      0.093765     -0.399425
Fe            0.143460      0.431559     -0.286091
Ni            0.356286     -0.407664      0.487087
Fe           -0.133987     -0.418045      0.275034
Fe           -0.354962      0.411090     -0.469118
H            -0.093565      0.377256     -0.447475
H            -0.416900     -0.413363      0.324078
H             0.100381     -0.430687      0.453568
H             0.417251      0.396124     -0.310580
O            -0.198232      0.398240      0.407022
O            -0.304593     -0.415036     -0.346666
O             0.193109     -0.409056     -0.406895
O             0.294737      0.419118      0.352089
O            -0.056735      0.402259     -0.355448
O            -0.448198     -0.408407      0.422094
O             0.044895     -0.425059      0.358563
O             0.446396      0.428790     -0.405432
H             0.217240     -0.239119      0.341451
H             0.035734     -0.265301      0.167391
H             0.191365     -0.152807      0.122326
data_nwchem_pspw

_audit_creation_date   Thu Sep 29 11:24:09 2022
_audit_creation_method    generated by PSPW module of NWChem


_cell_length_a            10.0667
_cell_length_b             9.1552
_cell_length_c             9.2041
_cell_angle_alpha         90.0000
_cell_angle_beta          90.0000
_cell_angle_gamma         90.0000

_symmetry_space_group_name_H-M     P1  

loop_
_atom_site_type_symbol
_atom_site_fract_x
_atom_site_fract_y
_atom_site_fract_z
H             0.232543     -0.357266      0.197282
Fe            0.360501     -0.093148     -0.047332
Fe           -0.148002     -0.073065     -0.218111
Fe           -0.347849     -0.244585      0.028713
H            -0.086577     -0.237224      0.025490
H            -0.409285     -0.061044     -0.197678
H             0.060932     -0.089524     -0.042743
H             0.423056     -0.249475      0.192217
O            -0.192806     -0.251942     -0.108311
O            -0.298171     -0.086367      0.152389
O             0.217091     -0.098507      0.103203
O             0.310247     -0.262184     -0.169754
O            -0.045282     -0.241281      0.126667
O            -0.433313     -0.088128     -0.097130
O             0.051402     -0.093067     -0.142990
O             0.459022     -0.251494      0.093489
Fe            0.140557      0.069330      0.232102
Fe            0.346940      0.240440     -0.021276
Fe           -0.146634      0.244992     -0.225054
Fe           -0.362816      0.084599      0.030670
H            -0.100164      0.094478      0.047597
H            -0.416661      0.241855     -0.211238
H             0.077486      0.218762     -0.048001
H             0.409855      0.102771      0.199206
O            -0.197367      0.092183     -0.092708
O            -0.301746      0.267169      0.160879
O             0.185443      0.247794      0.105037
O             0.295702      0.082294     -0.158086
O            -0.056286      0.097203      0.147221
O            -0.453635      0.235114     -0.104606
O             0.043714      0.232837     -0.144430
O             0.440382      0.086616      0.104039
Fe            0.147211      0.411810      0.236973
Fe            0.363805     -0.428683     -0.043882
Fe           -0.141541     -0.426509     -0.227244
Fe           -0.345524      0.425737      0.026164
H            -0.057961      0.419339      0.051536
H            -0.402290     -0.416084     -0.211739
H             0.083148     -0.428663     -0.047607
H             0.430297      0.399790      0.204160
O            -0.196020      0.412062     -0.107194
O            -0.294750     -0.422588      0.149009
O             0.218211     -0.411347      0.111840
O             0.303482      0.405460     -0.162659
O            -0.038137      0.428071      0.147821
O            -0.443841     -0.427171     -0.116297
O             0.061623     -0.422575     -0.150064
O             0.455655      0.409937      0.100377
Fe            0.151379     -0.243874     -0.277152
Fe            0.350039     -0.068101      0.479604
Fe           -0.151168     -0.061944      0.295738
Fe           -0.363946     -0.263662     -0.471333
H            -0.066030     -0.254492     -0.459513
H            -0.434714     -0.048242      0.291916
H             0.077856     -0.096411      0.461103
H             0.412257     -0.242666     -0.313210
O            -0.206827     -0.242657      0.391382
O            -0.312314     -0.079871     -0.346001
O             0.182072     -0.073989     -0.404662
O             0.297245     -0.253960      0.329078
O            -0.054281     -0.252829     -0.354318
O            -0.450430     -0.068736      0.394811
O             0.038907     -0.081835      0.366787
O             0.436225     -0.243330     -0.416890
Fe            0.137480      0.088495     -0.273014
Fe            0.357064      0.257473      0.481854
Fe           -0.138007      0.255398      0.282426
Fe           -0.372671      0.080508     -0.472883
H            -0.122719      0.084903     -0.443637
H            -0.410053      0.239548      0.291695
H             0.070097      0.268870      0.463924
H             0.388228      0.096697     -0.304556
O            -0.208997      0.093206      0.418743
O            -0.312256      0.244425     -0.338509
O             0.211277      0.251202     -0.389305
O             0.308835      0.084070      0.344062
O            -0.070669      0.082216     -0.351949
O            -0.439453      0.255999      0.392233
O             0.052921      0.231946      0.365933
O             0.447710      0.084417     -0.394788
Fe            0.144074      0.429742     -0.279435
Ni            0.365458     -0.427676      0.454713
Fe           -0.137279     -0.403203      0.279620
Fe           -0.355004      0.406776     -0.478516
H            -0.093677      0.417017     -0.452369
H            -0.409200     -0.417774      0.292860
H             0.086077     -0.417139      0.466045
H             0.418856      0.426351     -0.300707
O            -0.192190      0.436897      0.401879
O            -0.304087     -0.424881     -0.335033
O             0.198545     -0.411890     -0.400952
O             0.302278      0.404951      0.347366
O            -0.051045      0.408292     -0.357994
O            -0.448978     -0.409693      0.388601
O             0.049760     -0.425167      0.365176
O             0.444621      0.425455     -0.401120
H             0.206600     -0.251000      0.363551
H             0.048152     -0.238677      0.132661
H             0.264556     -0.149634      0.188156
data_nwchem_pspw

_audit_creation_date   Thu Sep 29 14:25:34 2022
_audit_creation_method    generated by PSPW module of NWChem


_cell_length_a            10.0667
_cell_length_b             9.1552
_cell_length_c             9.2041
_cell_angle_alpha         90.0000
_cell_angle_beta          90.0000
_cell_angle_gamma         90.0000

_symmetry_space_group_name_H-M     P1  

loop_
_atom_site_type_symbol
_atom_site_fract_x
_atom_site_fract_y
_atom_site_fract_z
H             0.244671     -0.350543      0.194035
Fe            0.359610     -0.086326     -0.043358
Fe           -0.139939     -0.089491     -0.228528
Fe           -0.372936     -0.242132      0.036782
H            -0.132227     -0.256924     -0.008848
H            -0.399507     -0.101736     -0.194520
H             0.089583     -0.103732     -0.061435
H             0.416184     -0.237359      0.214841
O            -0.194716     -0.244349     -0.087291
O            -0.298608     -0.073443      0.157255
O             0.192850     -0.092220      0.080045
O             0.303011     -0.251910     -0.159576
O            -0.055399     -0.245042      0.154700
O            -0.445022     -0.092693     -0.100040
O             0.058285     -0.096897     -0.159333
O             0.436861     -0.252310      0.112563
Fe            0.142274      0.073395      0.222935
Fe            0.357369      0.249434     -0.028438
Fe           -0.140943      0.250833     -0.218626
Fe           -0.352311      0.088902      0.038201
H            -0.100006      0.087788      0.036144
H            -0.424019      0.248822     -0.198891
H             0.107152      0.245649     -0.053960
H             0.416063      0.051371      0.201878
O            -0.187202      0.069043     -0.087238
O            -0.320979      0.261192      0.164094
O             0.193723      0.258097      0.091455
O             0.310889      0.089609     -0.156992
O            -0.056504      0.091631      0.142256
O            -0.449613      0.258061     -0.096655
O             0.058060      0.248073     -0.148324
O             0.444990      0.069667      0.106791
Fe            0.132492      0.411320      0.220848
Fe            0.362222     -0.423260     -0.024686
Fe           -0.142643     -0.418702     -0.227731
Fe           -0.362155      0.428730      0.041286
H            -0.098158      0.428003      0.052403
H            -0.407371     -0.418693     -0.199998
H             0.074715     -0.434995     -0.045089
H             0.396466      0.419353      0.203293
O            -0.194419      0.429896     -0.094176
O            -0.301314     -0.403195      0.151953
O             0.207092     -0.394734      0.109952
O             0.305831      0.420120     -0.150625
O            -0.057549      0.424493      0.146000
O            -0.450180     -0.410015     -0.105971
O             0.045003     -0.417148     -0.143027
O             0.443753      0.415254      0.110552
Fe            0.144172     -0.247099     -0.292300
Fe            0.355177     -0.077234      0.484360
Fe           -0.139836     -0.086251      0.276924
Fe           -0.358635     -0.251397     -0.475214
H            -0.102781     -0.255728     -0.448901
H            -0.398244     -0.062886      0.304908
H             0.084735     -0.084907      0.454011
H             0.401433     -0.260251     -0.312300
O            -0.195808     -0.242350      0.404760
O            -0.299659     -0.096484     -0.331834
O             0.189296     -0.076365     -0.424475
O             0.299293     -0.244528      0.351500
O            -0.058338     -0.261676     -0.354458
O            -0.447244     -0.079978      0.396760
O             0.045409     -0.075157      0.355769
O             0.439793     -0.249439     -0.409673
Fe            0.148757      0.088733     -0.282270
Fe            0.364465      0.260998      0.458346
Fe           -0.149086      0.250325      0.287402
Fe           -0.354805      0.071775     -0.462075
H            -0.087919      0.101179     -0.453083
H            -0.410709      0.253898      0.288655
H             0.092071      0.250768      0.445978
H             0.412707      0.084048     -0.294283
O            -0.196328      0.086589      0.408120
O            -0.301619      0.236807     -0.341066
O             0.210353      0.252706     -0.402333
O             0.306052      0.082032      0.342492
O            -0.051661      0.095783     -0.352206
O            -0.445453      0.251726      0.394585
O             0.053712      0.235716      0.355772
O             0.450195      0.070457     -0.393708
Fe            0.140159      0.423201     -0.279391
Ni            0.369990     -0.414816      0.470705
Fe           -0.127963     -0.412811      0.279625
Fe           -0.365221      0.402288     -0.485099
H            -0.081223      0.429502     -0.458764
H            -0.409503     -0.403363      0.295785
H             0.088662     -0.430204      0.474317
H             0.399211      0.416576     -0.305309
O            -0.204267      0.421177      0.409539
O            -0.318454     -0.419576     -0.340946
O             0.202636     -0.415469     -0.402262
O             0.302552      0.421645      0.337971
O            -0.050616      0.415091     -0.354788
O            -0.448897     -0.424915      0.390020
O             0.051242     -0.450078      0.376648
O             0.440888      0.424097     -0.401025
H             0.204055     -0.234359      0.354717
H             0.035515     -0.235721      0.121325
H             0.193474     -0.168780      0.144917
data_nwchem_pspw

_audit_creation_date   Thu Sep 29 17:25:32 2022
_audit_creation_method    generated by PSPW module of NWChem


_cell_length_a            10.0667
_cell_length_b             9.1552
_cell_length_c             9.2041
_cell_angle_alpha         90.0000
_cell_angle_beta          90.0000
_cell_angle_gamma         90.0000

_symmetry_space_group_name_H-M     P1  

loop_
_atom_site_type_symbol
_atom_site_fract_x
_atom_site_fract_y
_atom_site_fract_z
H             0.221562     -0.356528      0.184021
Fe            0.359995     -0.080075     -0.046171
Fe           -0.136025     -0.085922     -0.238468
Fe           -0.359797     -0.242290      0.047737
H            -0.115518     -0.264753      0.005989
H            -0.411700     -0.097661     -0.191340
H             0.097526     -0.071873     -0.058870
H             0.414420     -0.224035      0.207252
O            -0.188498     -0.242105     -0.080904
O            -0.285511     -0.079201      0.160108
O             0.197900     -0.062285      0.081840
O             0.296634     -0.250625     -0.159280
O            -0.051575     -0.255277      0.135891
O            -0.447834     -0.085739     -0.097628
O             0.060643     -0.089443     -0.160921
O             0.448530     -0.243281      0.107313
Fe            0.141465      0.088873      0.237254
Fe            0.347920      0.245244     -0.022121
Fe           -0.136023      0.241463     -0.220394
Fe           -0.348778      0.084260      0.009998
H            -0.072296      0.089515      0.034088
H            -0.445700      0.241412     -0.204498
H             0.092895      0.257698     -0.052038
H             0.427160      0.063162      0.209651
O            -0.188054      0.081625     -0.106767
O            -0.291990      0.229958      0.142580
O             0.188028      0.243464      0.093916
O             0.306393      0.085399     -0.165962
O            -0.048362      0.079873      0.135837
O            -0.465103      0.239410     -0.100462
O             0.061757      0.234839     -0.151164
O             0.454674      0.088360      0.107102
Fe            0.139061      0.413377      0.224804
Fe            0.369631     -0.418225     -0.016964
Fe           -0.148336     -0.422862     -0.234546
Fe           -0.364216      0.406471      0.040219
H            -0.099412      0.421531      0.031916
H            -0.424973     -0.411122     -0.188924
H             0.085644     -0.402190     -0.067728
H             0.395330      0.405989      0.207334
O            -0.197978      0.409209     -0.095410
O            -0.313757     -0.429424      0.178583
O             0.205098     -0.409087      0.093702
O             0.292549      0.427599     -0.143811
O            -0.062144      0.410587      0.134324
O            -0.443035     -0.426045     -0.088307
O             0.036782     -0.417414     -0.156808
O             0.437847      0.410639      0.105402
Fe            0.145631     -0.249357     -0.296077
Fe            0.356497     -0.069744      0.474829
Fe           -0.121192     -0.075625      0.278292
Fe           -0.368987     -0.250439     -0.474838
H            -0.103687     -0.256595     -0.464554
H            -0.397115     -0.077775      0.309025
H             0.092662     -0.098504      0.460830
H             0.396107     -0.225429     -0.315054
O            -0.191055     -0.242879      0.409793
O            -0.304176     -0.092744     -0.334406
O             0.196398     -0.074713     -0.408033
O             0.298355     -0.241383      0.349644
O            -0.057120     -0.257091     -0.363671
O            -0.450078     -0.091305      0.395397
O             0.065204     -0.096710      0.361115
O             0.440025     -0.242872     -0.410114
Fe            0.143432      0.090974     -0.277924
Fe            0.355183      0.259157      0.472858
Fe           -0.142452      0.251496      0.282752
Fe           -0.348161      0.079843     -0.469340
H            -0.095734      0.088842     -0.470543
H            -0.410694      0.221169      0.309985
H             0.103925      0.248076      0.456004
H             0.425928      0.081129     -0.295394
O            -0.189555      0.086522      0.411633
O            -0.304263      0.242801     -0.332985
O             0.192522      0.261101     -0.405632
O             0.310150      0.088758      0.346043
O            -0.052833      0.084948     -0.365281
O            -0.440871      0.233313      0.407429
O             0.064527      0.255136      0.361012
O             0.449524      0.096076     -0.397762
Fe            0.142064      0.424139     -0.280144
Ni            0.348706     -0.414251      0.484009
Fe           -0.146222     -0.414751      0.276452
Fe           -0.365478      0.414369     -0.465692
H            -0.092542      0.420191     -0.456723
H            -0.417317     -0.438489      0.299881
H             0.092445     -0.441911      0.441144
H             0.389645      0.405595     -0.294174
O            -0.193707      0.411011      0.409427
O            -0.304726     -0.416075     -0.355125
O             0.182225     -0.416422     -0.412261
O             0.301537      0.418969      0.359206
O            -0.067237      0.416240     -0.360374
O            -0.447094     -0.427317      0.400905
O             0.052649     -0.427497      0.346782
O             0.438420      0.415047     -0.387000
H             0.203909     -0.213631      0.363312
H             0.037957     -0.273025      0.162363
H             0.172943     -0.153506      0.113737
data_nwchem_pspw

_audit_creation_date   Thu Sep 29 20:28:47 2022
_audit_creation_method    generated by PSPW module of NWChem


_cell_length_a            10.0667
_cell_length_b             9.1552
_cell_length_c             9.2041
_cell_angle_alpha         90.0000
_cell_angle_beta          90.0000
_cell_angle_gamma         90.0000

_symmetry_space_group_name_H-M     P1  

loop_
_atom_site_type_symbol
_atom_site_fract_x
_atom_site_fract_y
_atom_site_fract_z
H             0.238251     -0.352381      0.175551
Fe            0.356242     -0.068633     -0.037744
Fe           -0.145819     -0.080255     -0.243288
Fe           -0.365179     -0.247358      0.036637
H            -0.139026     -0.241741      0.002303
H            -0.408194     -0.064370     -0.186552
H             0.064446     -0.058006     -0.052269
H             0.422385     -0.235398      0.204685
O            -0.185391     -0.243049     -0.092118
O            -0.304116     -0.084303      0.165092
O             0.208287     -0.090166      0.104869
O             0.301784     -0.239243     -0.156751
O            -0.073410     -0.251394      0.134065
O            -0.445899     -0.069340     -0.094153
O             0.055724     -0.068011     -0.155738
O             0.442155     -0.248998      0.106559
Fe            0.148073      0.082485      0.230794
Fe            0.373079      0.256246     -0.016857
Fe           -0.136735      0.258888     -0.213902
Fe           -0.354543      0.081170      0.032923
H            -0.082825      0.072356      0.049740
H            -0.394800      0.238587     -0.209441
H             0.097793      0.259566     -0.054993
H             0.404086      0.080793      0.213052
O            -0.195795      0.079310     -0.104893
O            -0.296458      0.247052      0.146347
O             0.212610      0.249537      0.105219
O             0.309257      0.089719     -0.158719
O            -0.046233      0.081267      0.149911
O            -0.438090      0.258200     -0.111786
O             0.068236      0.252012     -0.148179
O             0.448593      0.085008      0.114110
Fe            0.141535      0.413919      0.232044
Fe            0.349360     -0.416486     -0.047077
Fe           -0.156616     -0.411827     -0.216120
Fe           -0.369982      0.415097      0.026519
H            -0.094073      0.406677      0.041133
H            -0.423606     -0.416173     -0.207744
H             0.090534     -0.394991     -0.044415
H             0.410780      0.426066      0.206783
O            -0.189373      0.428782     -0.082968
O            -0.309964     -0.425935      0.153755
O             0.198304     -0.412991      0.102732
O             0.309623      0.403764     -0.154623
O            -0.051648      0.406167      0.144908
O            -0.462917     -0.401674     -0.105824
O             0.063775     -0.424135     -0.139469
O             0.448583      0.425624      0.101743
Fe            0.147543     -0.238983     -0.270827
Fe            0.358284     -0.086016      0.471175
Fe           -0.145362     -0.091621      0.280850
Fe           -0.362724     -0.268554     -0.480691
H            -0.090606     -0.260668     -0.449441
H            -0.399577     -0.084554      0.307123
H             0.087342     -0.062123      0.447624
H             0.418285     -0.241675     -0.296564
O            -0.199798     -0.258386      0.409777
O            -0.311070     -0.098873     -0.340521
O             0.208422     -0.069674     -0.396895
O             0.288690     -0.241217      0.337546
O            -0.054581     -0.243909     -0.355900
O            -0.444808     -0.087328      0.402270
O             0.059348     -0.076759      0.350585
O             0.436102     -0.250240     -0.397736
Fe            0.152492      0.091974     -0.282763
Fe            0.349063      0.253490      0.469493
Fe           -0.146561      0.252161      0.280854
Fe           -0.358620      0.072681     -0.466238
H            -0.058867      0.088954     -0.462677
H            -0.416061      0.227979      0.312256
H             0.096214      0.243597      0.459059
H             0.420139      0.088370     -0.307534
O            -0.199925      0.070040      0.402103
O            -0.302840      0.248490     -0.335168
O             0.186821      0.247592     -0.414430
O             0.315937      0.076229      0.340195
O            -0.039011      0.083207     -0.363116
O            -0.448254      0.249823      0.403832
O             0.057320      0.236717      0.362628
O             0.442517      0.084785     -0.408224
Fe            0.147968      0.420870     -0.286295
Ni            0.358920     -0.420580      0.462540
Fe           -0.132467     -0.418913      0.288715
Fe           -0.366874      0.409948     -0.483173
H            -0.085701      0.417905     -0.439627
H            -0.415845     -0.436035      0.284628
H             0.091002     -0.398718      0.445974
H             0.410043      0.406625     -0.294849
O            -0.203270      0.422064      0.411861
O            -0.307730     -0.424510     -0.329121
O             0.193459     -0.415045     -0.395029
O             0.312110      0.409135      0.340915
O            -0.053626      0.410786     -0.338107
O            -0.447577     -0.433330      0.385670
O             0.052272     -0.420941      0.353707
O             0.444381      0.409211     -0.395042
H             0.194085     -0.248131      0.342328
H             0.020593     -0.244497      0.128206
H             0.249558     -0.143958      0.186447
data_nwchem_pspw

_audit_creation_date   Thu Sep 29 23:24:21 2022
_audit_creation_method    generated by PSPW module of NWChem


_cell_length_a            10.0667
_cell_length_b             9.1552
_cell_length_c             9.2041
_cell_angle_alpha         90.0000
_cell_angle_beta          90.0000
_cell_angle_gamma         90.0000

_symmetry_space_group_name_H-M     P1  

loop_
_atom_site_type_symbol
_atom_site_fract_x
_atom_site_fract_y
_atom_site_fract_z
H             0.202773     -0.334905      0.136842
Fe            0.369038     -0.089554     -0.047749
Fe           -0.136105     -0.078933     -0.239066
Fe           -0.363014     -0.263925      0.039426
H            -0.118040     -0.267799     -0.022552
H            -0.402231     -0.072980     -0.194555
H             0.100112     -0.098796     -0.054160
H             0.408763     -0.257240      0.202787
O            -0.197072     -0.264936     -0.095931
O            -0.309941     -0.092656      0.161772
O             0.210339     -0.080772      0.104224
O             0.297134     -0.260831     -0.156370
O            -0.073362     -0.256693      0.134198
O            -0.439029     -0.085210     -0.095746
O             0.058219     -0.089679     -0.146301
O             0.436322     -0.233727      0.105605
Fe            0.144814      0.083595      0.228479
Fe            0.356262      0.247864     -0.020748
Fe           -0.149702      0.251883     -0.229861
Fe           -0.345330      0.079243      0.032876
H            -0.074670      0.082938      0.042730
H            -0.403752      0.280148     -0.198552
H             0.084185      0.254162     -0.044151
H             0.419442      0.077185      0.200110
O            -0.190874      0.069004     -0.096112
O            -0.294224      0.257690      0.154582
O             0.176068      0.258910      0.090037
O             0.317284      0.073761     -0.154978
O            -0.056733      0.077067      0.149989
O            -0.432897      0.246094     -0.100561
O             0.051024      0.249270     -0.149623
O             0.458210      0.098197      0.104078
Fe            0.137881      0.426654      0.231708
Fe            0.370315     -0.435646     -0.020251
Fe           -0.148494     -0.432500     -0.244444
Fe           -0.359328      0.413742      0.033804
H            -0.095250      0.413657      0.053732
H            -0.406934     -0.405761     -0.206193
H             0.068059     -0.427615     -0.059146
H             0.383444      0.429718      0.255124
O            -0.187918      0.408669     -0.091681
O            -0.313266     -0.423615      0.164073
O             0.194888     -0.420797      0.080493
O             0.297352      0.412464     -0.165551
O            -0.059096      0.410021      0.154529
O            -0.446837     -0.422788     -0.103754
O             0.051029     -0.418118     -0.161125
O             0.454034      0.419584      0.111087
Fe            0.144817     -0.257798     -0.290317
Fe            0.348731     -0.091564      0.465914
Fe           -0.144249     -0.073244      0.283074
Fe           -0.358959     -0.246959     -0.475544
H            -0.113884     -0.242588     -0.460237
H            -0.416529     -0.111580      0.293251
H             0.084882     -0.077003      0.444024
H             0.399416     -0.258878     -0.299676
O            -0.186171     -0.246045      0.412020
O            -0.298715     -0.080546     -0.344866
O             0.184412     -0.078123     -0.413959
O             0.302065     -0.256999      0.346182
O            -0.055000     -0.248424     -0.359972
O            -0.455270     -0.103904      0.389526
O             0.056254     -0.076098      0.343792
O             0.431569     -0.251051     -0.395786
Fe            0.148326      0.087617     -0.266883
Fe            0.359569      0.257843      0.475700
Fe           -0.140733      0.256080      0.299909
Fe           -0.355025      0.089214     -0.472856
H            -0.068343      0.107970     -0.451213
H            -0.404445      0.253767      0.291151
H             0.105842      0.258689      0.456870
H             0.419358      0.072745     -0.302228
O            -0.206609      0.092228      0.409188
O            -0.313137      0.266300     -0.344760
O             0.198997      0.247508     -0.414969
O             0.309282      0.097749      0.340514
O            -0.050315      0.090616     -0.350050
O            -0.446192      0.266480      0.387855
O             0.049165      0.259188      0.361421
O             0.448179      0.070018     -0.400544
Fe            0.143123      0.410616     -0.283257
Ni            0.361152     -0.412544      0.496214
Fe           -0.140061     -0.414018      0.277557
Fe           -0.368690      0.434845     -0.478215
H            -0.085330      0.394612     -0.468462
H            -0.419959     -0.392094      0.309610
H             0.094829     -0.409191      0.443666
H             0.407140      0.430664     -0.296110
O            -0.205852      0.435037      0.416236
O            -0.325343     -0.405157     -0.332507
O             0.187497     -0.425068     -0.415942
O             0.316267      0.428803      0.331568
O            -0.052525      0.402790     -0.364881
O            -0.440874     -0.399597      0.407835
O             0.054710     -0.405758      0.347864
O             0.443782      0.427244     -0.391699
H             0.206919     -0.262459      0.332747
H             0.016986     -0.245852      0.162595
H             0.226488     -0.148752      0.177626
data_nwchem_pspw

_audit_creation_date   Fri Sep 30 02:23:19 2022
_audit_creation_method    generated by PSPW module of NWChem


_cell_length_a            10.0667
_cell_length_b             9.1552
_cell_length_c             9.2041
_cell_angle_alpha         90.0000
_cell_angle_beta          90.0000
_cell_angle_gamma         90.0000

_symmetry_space_group_name_H-M     P1  

loop_
_atom_site_type_symbol
_atom_site_fract_x
_atom_site_fract_y
_atom_site_fract_z
H             0.215721     -0.354085      0.184692
Fe            0.358795     -0.074525     -0.051079
Fe           -0.152113     -0.082884     -0.232053
Fe           -0.353256     -0.239880      0.037872
H            -0.119890     -0.255690      0.003792
H            -0.388878     -0.064282     -0.209816
H             0.046806     -0.071656     -0.047404
H             0.413455     -0.241931      0.205884
O            -0.188885     -0.242309     -0.081125
O            -0.298559     -0.094067      0.161957
O             0.196078     -0.088662      0.087515
O             0.306432     -0.250884     -0.158278
O            -0.071724     -0.254626      0.151606
O            -0.436421     -0.072719     -0.114007
O             0.049200     -0.074158     -0.150115
O             0.436446     -0.231688      0.104432
Fe            0.140568      0.073099      0.224433
Fe            0.371081      0.256612     -0.004352
Fe           -0.144183      0.251069     -0.226068
Fe           -0.370707      0.082959      0.039029
H            -0.096235      0.077733      0.045223
H            -0.388170      0.227211     -0.194544
H             0.086307      0.246710     -0.037224
H             0.400868      0.071591      0.204858
O            -0.200911      0.079949     -0.089262
O            -0.313042      0.250914      0.169752
O             0.193752      0.253137      0.103220
O             0.317390      0.096650     -0.155168
O            -0.058385      0.094847      0.143981
O            -0.430713      0.245107     -0.093009
O             0.068517      0.255871     -0.137386
O             0.440489      0.072849      0.105837
Fe            0.137190      0.413523      0.232557
Fe            0.356730     -0.414901     -0.047191
Fe           -0.142496     -0.416929     -0.230384
Fe           -0.347788      0.416978      0.035623
H            -0.093602      0.413164      0.044258
H            -0.415489     -0.421386     -0.207655
H             0.075712     -0.429325     -0.060239
H             0.373835      0.421789      0.256752
O            -0.193267      0.421788     -0.097460
O            -0.310215     -0.404969      0.163053
O             0.201894     -0.411104      0.098529
O             0.310641      0.425188     -0.153749
O            -0.071170      0.414264      0.143854
O            -0.443830     -0.409994     -0.108804
O             0.058920     -0.406097     -0.159289
O             0.455837      0.422436      0.098418
Fe            0.144595     -0.245077     -0.291647
Fe            0.352898     -0.095033      0.479609
Fe           -0.133956     -0.077950      0.276438
Fe           -0.359703     -0.257033     -0.483585
H            -0.092088     -0.258632     -0.455286
H            -0.399791     -0.083010      0.284015
H             0.082856     -0.073590      0.453422
H             0.409748     -0.243017     -0.291273
O            -0.188644     -0.252231      0.413049
O            -0.312475     -0.087744     -0.344349
O             0.204258     -0.071929     -0.396150
O             0.281429     -0.259174      0.343655
O            -0.054775     -0.243335     -0.358164
O            -0.443188     -0.086956      0.376209
O             0.050962     -0.088077      0.355844
O             0.449693     -0.250668     -0.393701
Fe            0.150613      0.094472     -0.264842
Fe            0.362765      0.239851      0.468438
Fe           -0.151096      0.254938      0.278583
Fe           -0.358938      0.080006     -0.476108
H            -0.079048      0.100264     -0.458034
H            -0.398358      0.258997      0.302997
H             0.088190      0.228635      0.446062
H             0.407425      0.083637     -0.304122
O            -0.200907      0.096485      0.407773
O            -0.307654      0.241853     -0.349167
O             0.196019      0.248720     -0.410997
O             0.300501      0.070682      0.340716
O            -0.054866      0.095154     -0.356251
O            -0.449782      0.252147      0.391908
O             0.058509      0.241688      0.350484
O             0.441732      0.067505     -0.404104
Fe            0.154424      0.416434     -0.279164
Ni            0.356703     -0.420221      0.477597
Fe           -0.151266     -0.423181      0.290282
Fe           -0.352134      0.414439     -0.470162
H            -0.079902      0.398833     -0.452558
H            -0.416896     -0.420344      0.301405
H             0.073237     -0.439603      0.453012
H             0.421514      0.417968     -0.304420
O            -0.206634      0.406990      0.405263
O            -0.292173     -0.410131     -0.343915
O             0.198725     -0.419993     -0.404654
O             0.306614      0.420396      0.338836
O            -0.048471      0.419083     -0.353659
O            -0.455482     -0.409991      0.395994
O             0.033408     -0.450047      0.356562
O             0.451095      0.417494     -0.399683
H             0.188261     -0.259165      0.365540
H             0.019629     -0.246320      0.125112
H             0.209224     -0.165448      0.155464
data_nwchem_pspw

_audit_creation_date   Fri Sep 30 05:24:31 2022
_audit_creation_method    generated by PSPW module of NWChem


_cell_length_a            10.0667
_cell_length_b             9.1552
_cell_length_c             9.2041
_cell_angle_alpha         90.0000
_cell_angle_beta          90.0000
_cell_angle_gamma         90.0000

_symmetry_space_group_name_H-M     P1  

loop_
_atom_site_type_symbol
_atom_site_fract_x
_atom_site_fract_y
_atom_site_fract_z
H             0.198307     -0.333191      0.146924
Fe            0.373838     -0.077914     -0.033058
Fe           -0.140744     -0.082651     -0.219921
Fe           -0.351165     -0.252648      0.024276
H            -0.128496     -0.239683     -0.010238
H            -0.417197     -0.067800     -0.204470
H             0.075464     -0.067068     -0.053180
H             0.404880     -0.243344      0.184899
O            -0.199659     -0.259332     -0.092815
O            -0.324863     -0.086912      0.165969
O             0.191815     -0.081447      0.082664
O             0.315354     -0.251843     -0.165689
O            -0.081002     -0.233608      0.124456
O            -0.438202     -0.070910     -0.103412
O             0.053924     -0.077983     -0.158053
O             0.444955     -0.253918      0.089768
Fe            0.133826      0.077955      0.221118
Fe            0.361849      0.253001     -0.008290
Fe           -0.155881      0.247648     -0.227393
Fe           -0.352818      0.085334      0.027918
H            -0.082414      0.112599      0.050890
H            -0.407453      0.255712     -0.194303
H             0.091077      0.258975     -0.049190
H             0.401268      0.084292      0.207485
O            -0.192738      0.076639     -0.083915
O            -0.301403      0.253866      0.168768
O             0.192449      0.254044      0.104262
O             0.307242      0.086023     -0.156858
O            -0.051638      0.079425      0.151227
O            -0.428786      0.247361     -0.087604
O             0.055886      0.252569     -0.142637
O             0.447597      0.076553      0.110385
Fe            0.141429      0.423542      0.226168
Fe            0.366020     -0.419568     -0.037475
Fe           -0.138677     -0.422175     -0.232928
Fe           -0.358761      0.415366      0.042470
H            -0.092408      0.411531      0.045185
H            -0.409047     -0.412085     -0.206580
H             0.068195     -0.412869     -0.046719
H             0.384594      0.420193      0.263768
O            -0.185282      0.404310     -0.087204
O            -0.298363     -0.416100      0.155180
O             0.196577     -0.420558      0.094691
O             0.304217      0.413128     -0.154750
O            -0.054225      0.421410      0.147552
O            -0.440289     -0.411664     -0.101624
O             0.061442     -0.419855     -0.149702
O             0.446432      0.416748      0.105697
Fe            0.143382     -0.245698     -0.286763
Fe            0.351762     -0.078130      0.472482
Fe           -0.159879     -0.091157      0.278696
Fe           -0.359124     -0.245401     -0.465944
H            -0.094138     -0.242610     -0.463354
H            -0.410282     -0.089816      0.298847
H             0.090816     -0.111980      0.435304
H             0.410604     -0.248370     -0.313141
O            -0.219416     -0.246597      0.391717
O            -0.290184     -0.086513     -0.349255
O             0.192150     -0.071129     -0.402190
O             0.305878     -0.255885      0.344180
O            -0.058735     -0.250394     -0.359437
O            -0.446180     -0.090532      0.402841
O             0.058573     -0.097408      0.337927
O             0.442151     -0.252136     -0.416133
Fe            0.137711      0.093549     -0.268566
Fe            0.347992      0.250862      0.476342
Fe           -0.138123      0.247331      0.271015
Fe           -0.351176      0.077421     -0.470476
H            -0.085928      0.093460     -0.451473
H            -0.443335      0.247944      0.303223
H             0.078522      0.229583      0.452839
H             0.406876      0.079216     -0.285709
O            -0.193235      0.076801      0.415082
O            -0.316450      0.240158     -0.338467
O             0.199773      0.252084     -0.402914
O             0.304233      0.082769      0.336904
O            -0.054533      0.088540     -0.347607
O            -0.453705      0.248407      0.406723
O             0.052497      0.246215      0.354394
O             0.439752      0.078476     -0.387844
Fe            0.158211      0.427165     -0.280676
Ni            0.365399     -0.416449      0.465967
Fe           -0.146632     -0.422103      0.291799
Fe           -0.360151      0.423288     -0.480822
H            -0.094449      0.414304     -0.462771
H            -0.425356     -0.410454      0.293863
H             0.091204     -0.435127      0.468032
H             0.434203      0.443269     -0.297692
O            -0.203883      0.402282      0.405295
O            -0.307322     -0.414709     -0.340473
O             0.202462     -0.413301     -0.404952
O             0.309251      0.429767      0.333607
O            -0.056485      0.415489     -0.365266
O            -0.445689     -0.426423      0.392765
O             0.056644     -0.435605      0.370060
O             0.447412      0.423311     -0.396219
H             0.212170     -0.257587      0.344217
H             0.012141     -0.231040      0.146557
H             0.197877     -0.158564      0.150511
data_nwchem_pspw

_audit_creation_date   Fri Sep 30 08:27:33 2022
_audit_creation_method    generated by PSPW module of NWChem


_cell_length_a            10.0667
_cell_length_b             9.1552
_cell_length_c             9.2041
_cell_angle_alpha         90.0000
_cell_angle_beta          90.0000
_cell_angle_gamma         90.0000

_symmetry_space_group_name_H-M     P1  

loop_
_atom_site_type_symbol
_atom_site_fract_x
_atom_site_fract_y
_atom_site_fract_z
H             0.208452     -0.332788      0.182681
Fe            0.356411     -0.077882     -0.042074
Fe           -0.144200     -0.084978     -0.227287
Fe           -0.355100     -0.256902      0.018763
H            -0.089744     -0.247691      0.027289
H            -0.412620     -0.075909     -0.216195
H             0.070477     -0.079313     -0.054613
H             0.419124     -0.231111      0.190610
O            -0.200051     -0.259815     -0.102030
O            -0.295079     -0.082077      0.150625
O             0.189351     -0.089939      0.098609
O             0.299028     -0.249199     -0.157329
O            -0.055315     -0.242600      0.123469
O            -0.443132     -0.082713     -0.118455
O             0.055065     -0.087551     -0.154995
O             0.453324     -0.230575      0.094413
Fe            0.151963      0.091303      0.220344
Fe            0.354410      0.262376     -0.014444
Fe           -0.147809      0.247254     -0.200290
Fe           -0.363668      0.077649      0.027769
H            -0.085383      0.101396      0.045212
H            -0.399066      0.253370     -0.169390
H             0.080979      0.273302     -0.045870
H             0.403048      0.054196      0.191496
O            -0.197370      0.077802     -0.091963
O            -0.296299      0.243437      0.146873
O             0.189509      0.257573      0.099167
O             0.299460      0.098684     -0.154599
O            -0.041850      0.100294      0.140680
O            -0.451204      0.260071     -0.084501
O             0.050218      0.251640     -0.144918
O             0.440939      0.078004      0.094875
Fe            0.148302      0.424182      0.231187
Fe            0.357978     -0.407074     -0.033715
Fe           -0.143581     -0.424375     -0.231481
Fe           -0.350342      0.416490      0.041186
H            -0.095300      0.419646      0.062441
H            -0.408300     -0.428051     -0.202425
H             0.081708     -0.420152     -0.037169
H             0.409352      0.433423      0.207380
O            -0.191475      0.414116     -0.083889
O            -0.304255     -0.411650      0.158271
O             0.195556     -0.399010      0.102605
O             0.301178      0.410807     -0.149982
O            -0.060775      0.412796      0.157269
O            -0.438889     -0.422202     -0.098402
O             0.051848     -0.432188     -0.136811
O             0.448242      0.422844      0.107416
Fe            0.143510     -0.262993     -0.283322
Fe            0.353602     -0.076351      0.482205
Fe           -0.130750     -0.085317      0.290900
Fe           -0.355736     -0.252037     -0.474055
H            -0.092541     -0.264817     -0.450353
H            -0.423917     -0.102776      0.298298
H             0.071015     -0.070889      0.448445
H             0.432955     -0.247252     -0.292124
O            -0.203792     -0.253314      0.406465
O            -0.298924     -0.084780     -0.356353
O             0.198111     -0.080341     -0.399186
O             0.286950     -0.254871      0.357265
O            -0.063882     -0.267690     -0.352330
O            -0.447980     -0.076372      0.396230
O             0.050285     -0.082424      0.348485
O             0.444951     -0.247688     -0.394146
Fe            0.151423      0.086210     -0.281714
Fe            0.351586      0.261593      0.463559
Fe           -0.152966      0.248576      0.275211
Fe           -0.357011      0.081519     -0.477060
H            -0.086307      0.089104     -0.440187
H            -0.426217      0.231091      0.297380
H             0.068509      0.226352      0.464318
H             0.403542      0.086289     -0.306192
O            -0.195882      0.069975      0.400418
O            -0.301251      0.238671     -0.348755
O             0.196365      0.244892     -0.409458
O             0.302521      0.076153      0.337608
O            -0.050741      0.091888     -0.343868
O            -0.453300      0.254658      0.397136
O             0.052185      0.228575      0.357991
O             0.434808      0.105312     -0.403878
Fe            0.143800      0.412757     -0.278149
Ni            0.372707     -0.413331      0.477956
Fe           -0.137254     -0.421664      0.274515
Fe           -0.362567      0.409390     -0.478937
H            -0.094887      0.403136     -0.451154
H            -0.412503     -0.433142      0.299929
H             0.088121     -0.409382      0.462091
H             0.428023      0.422102     -0.294895
O            -0.211697      0.418569      0.399660
O            -0.314078     -0.420557     -0.342609
O             0.204398     -0.419352     -0.399392
O             0.306388      0.432632      0.337910
O            -0.061199      0.406048     -0.352635
O            -0.452493     -0.410622      0.389812
O             0.050976     -0.442105      0.368551
O             0.443991      0.431896     -0.397376
H             0.195902     -0.264332      0.388966
H             0.039422     -0.258813      0.112884
H             0.200454     -0.148630      0.184330
data_nwchem_pspw

_audit_creation_date   Fri Sep 30 11:23:58 2022
_audit_creation_method    generated by PSPW module of NWChem


_cell_length_a            10.0667
_cell_length_b             9.1552
_cell_length_c             9.2041
_cell_angle_alpha         90.0000
_cell_angle_beta          90.0000
_cell_angle_gamma         90.0000

_symmetry_space_group_name_H-M     P1  

loop_
_atom_site_type_symbol
_atom_site_fract_x
_atom_site_fract_y
_atom_site_fract_z
H             0.242628     -0.355191      0.163861
Fe            0.348939     -0.080943     -0.041579
Fe           -0.146689     -0.083295     -0.231803
Fe           -0.362483     -0.250710      0.040476
H            -0.115178     -0.253675     -0.003422
H            -0.391501     -0.076171     -0.190390
H             0.063457     -0.091403     -0.052417
H             0.396786     -0.254701      0.199909
O            -0.188077     -0.239861     -0.080914
O            -0.291929     -0.092481      0.157183
O             0.188605     -0.084166      0.088756
O             0.304609     -0.246275     -0.158245
O            -0.048714     -0.254839      0.136575
O            -0.444581     -0.088759     -0.110392
O             0.040197     -0.081251     -0.155542
O             0.435860     -0.241799      0.101153
Fe            0.150609      0.076653      0.249726
Fe            0.348630      0.248802     -0.019426
Fe           -0.140936      0.257040     -0.226193
Fe           -0.354043      0.090899      0.016452
H            -0.095983      0.082167      0.066880
H            -0.429054      0.248909     -0.206844
H             0.080617      0.253679     -0.045995
H             0.453451      0.081059      0.196772
O            -0.192964      0.077185     -0.093023
O            -0.305360      0.258334      0.154630
O             0.179021      0.231748      0.097071
O             0.293286      0.084944     -0.156862
O            -0.061794      0.091301      0.166011
O            -0.457534      0.245349     -0.104687
O             0.054164      0.250892     -0.151757
O             0.465316      0.088085      0.096215
Fe            0.150259      0.409822      0.232012
Fe            0.364183     -0.420167     -0.044286
Fe           -0.144125     -0.407727     -0.218741
Fe           -0.361566      0.420391      0.026979
H            -0.095027      0.412548      0.035364
H            -0.406026     -0.401854     -0.201017
H             0.076167     -0.427941     -0.036153
H             0.405218      0.409024      0.203788
O            -0.200030      0.414241     -0.090131
O            -0.309607     -0.411028      0.166578
O             0.208782     -0.423263      0.093925
O             0.289123      0.410841     -0.142856
O            -0.042629      0.410276      0.135038
O            -0.442755     -0.412029     -0.097857
O             0.060222     -0.415037     -0.139293
O             0.435862      0.401801      0.107273
Fe            0.157970     -0.261823     -0.289204
Fe            0.350325     -0.084855      0.474164
Fe           -0.133440     -0.090334      0.268664
Fe           -0.360627     -0.247499     -0.479433
H            -0.102548     -0.262086     -0.456097
H            -0.415642     -0.096513      0.294555
H             0.086531     -0.114189      0.450302
H             0.421430     -0.261397     -0.292074
O            -0.190637     -0.246562      0.405346
O            -0.301311     -0.085570     -0.352864
O             0.188570     -0.076646     -0.416785
O             0.305614     -0.259869      0.344967
O            -0.060355     -0.266629     -0.360948
O            -0.449172     -0.081512      0.393423
O             0.062689     -0.085273      0.352982
O             0.442399     -0.244714     -0.390222
Fe            0.136676      0.083031     -0.284673
Fe            0.357312      0.254979      0.474337
Fe           -0.131830      0.254888      0.287296
Fe           -0.356550      0.088175     -0.473281
H            -0.112155      0.088580     -0.454212
H            -0.427547      0.253045      0.295003
H             0.108809      0.257208      0.464138
H             0.406231      0.096202     -0.286978
O            -0.198374      0.095831      0.410413
O            -0.321160      0.250232     -0.326404
O             0.187622      0.260350     -0.413155
O             0.317031      0.084736      0.335181
O            -0.067389      0.087493     -0.353281
O            -0.453424      0.243537      0.398258
O             0.070008      0.246712      0.360646
O             0.438748      0.084847     -0.388496
Fe            0.131990      0.414725     -0.270275
Ni            0.354809     -0.420998      0.474884
Fe           -0.133395     -0.413512      0.268291
Fe           -0.347976      0.420455     -0.457181
H            -0.085048      0.422075     -0.457358
H            -0.413658     -0.434810      0.303543
H             0.084002     -0.428202      0.448919
H             0.411223      0.408151     -0.302660
O            -0.189207      0.421658      0.408571
O            -0.307160     -0.403953     -0.335689
O             0.196772     -0.421263     -0.414972
O             0.307078      0.414741      0.347965
O            -0.057855      0.430579     -0.355745
O            -0.450910     -0.419367      0.401102
O             0.056719     -0.422484      0.350033
O             0.443039      0.423444     -0.397820
H             0.208315     -0.274501      0.349412
H             0.041331     -0.239247      0.143032
H             0.192470     -0.154205      0.165183
data_nwchem_pspw

_audit_creation_date   Fri Sep 30 14:25:39 2022
_audit_creation_method    generated by PSPW module of NWChem


_cell_length_a            10.0667
_cell_length_b             9.1552
_cell_length_c             9.2041
_cell_angle_alpha         90.0000
_cell_angle_beta          90.0000
_cell_angle_gamma         90.0000

_symmetry_space_group_name_H-M     P1  

loop_
_atom_site_type_symbol
_atom_site_fract_x
_atom_site_fract_y
_atom_site_fract_z
H             0.231080     -0.357943      0.196456
Fe            0.371327     -0.093344     -0.021818
Fe           -0.154406     -0.076814     -0.242980
Fe           -0.359965     -0.243209      0.048268
H            -0.122842     -0.233807     -0.007816
H            -0.398143     -0.114289     -0.196689
H             0.094975     -0.070748     -0.054664
H             0.405445     -0.264726      0.215274
O            -0.188507     -0.245972     -0.087749
O            -0.296458     -0.077037      0.170942
O             0.204704     -0.083370      0.090075
O             0.298150     -0.248069     -0.148207
O            -0.048405     -0.251017      0.133322
O            -0.428072     -0.097676     -0.089816
O             0.060885     -0.070101     -0.150538
O             0.445733     -0.253722      0.118757
Fe            0.132534      0.086413      0.210354
Fe            0.360219      0.245163     -0.030862
Fe           -0.137947      0.249497     -0.216697
Fe           -0.341925      0.080393      0.038900
H            -0.098388      0.060954      0.050769
H            -0.420366      0.242771     -0.193525
H             0.091412      0.256434     -0.048306
H             0.409121      0.073256      0.205345
O            -0.197411      0.065776     -0.091921
O            -0.294095      0.266324      0.145020
O             0.192771      0.253255      0.094951
O             0.316503      0.075370     -0.152358
O            -0.064143      0.083960      0.146202
O            -0.442866      0.237900     -0.096220
O             0.057597      0.248654     -0.145609
O             0.452991      0.061191      0.109936
Fe            0.145608      0.407934      0.225478
Fe            0.354602     -0.413076     -0.029251
Fe           -0.155053     -0.411233     -0.220090
Fe           -0.366068      0.423063      0.026596
H            -0.077657      0.407804      0.056583
H            -0.433371     -0.417105     -0.196279
H             0.079164     -0.410364     -0.035790
H             0.416445      0.414933      0.214559
O            -0.206871      0.406732     -0.097754
O            -0.295804     -0.418866      0.149543
O             0.189997     -0.402971      0.114196
O             0.301400      0.417598     -0.146066
O            -0.044188      0.412497      0.157127
O            -0.453499     -0.418089     -0.089465
O             0.054889     -0.417782     -0.138542
O             0.433999      0.416705      0.108068
Fe            0.139109     -0.247034     -0.279716
Fe            0.355123     -0.073503      0.461405
Fe           -0.120061     -0.094827      0.280865
Fe           -0.362763     -0.243497     -0.483276
H            -0.097946     -0.244599     -0.453087
H            -0.409443     -0.056086      0.298156
H             0.102824     -0.057948      0.448564
H             0.406550     -0.247095     -0.334907
O            -0.197995     -0.259785      0.401601
O            -0.318880     -0.075378     -0.350250
O             0.192210     -0.082305     -0.412565
O             0.280469     -0.246935      0.337452
O            -0.060636     -0.246290     -0.354221
O            -0.448137     -0.081537      0.388859
O             0.060181     -0.076089      0.355146
O             0.435559     -0.249188     -0.432157
Fe            0.155986      0.081210     -0.287321
Fe            0.345459      0.246639      0.466437
Fe           -0.150629      0.253018      0.287593
Fe           -0.354061      0.081685     -0.470890
H            -0.098473      0.098037     -0.451757
H            -0.433071      0.225228      0.301137
H             0.081281      0.235786      0.457706
H             0.429343      0.085419     -0.280669
O            -0.198067      0.068873      0.408724
O            -0.285741      0.248990     -0.350357
O             0.197323      0.250533     -0.407417
O             0.296443      0.091921      0.340135
O            -0.058134      0.090414     -0.354547
O            -0.462965      0.236513      0.394651
O             0.045875      0.228939      0.356918
O             0.448927      0.077309     -0.386953
Fe            0.147609      0.427807     -0.282377
Ni            0.360738     -0.424193      0.465906
Fe           -0.125117     -0.413059      0.283770
Fe           -0.357675      0.416786     -0.467660
H            -0.076005      0.416962     -0.439293
H            -0.413250     -0.428777      0.310253
H             0.089174     -0.399531      0.452194
H             0.398198      0.408502     -0.306709
O            -0.194971      0.422947      0.411948
O            -0.325407     -0.401005     -0.336085
O             0.181760     -0.399329     -0.410716
O             0.307249      0.423718      0.346014
O            -0.055597      0.425223     -0.341482
O            -0.447848     -0.420677      0.408613
O             0.053246     -0.424834      0.355871
O             0.427837      0.406855     -0.404013
H             0.183941     -0.244819      0.343591
H             0.043307     -0.265527      0.127203
H             0.202602     -0.166945      0.151790
data_nwchem_pspw

_audit_creation_date   Fri Sep 30 17:24:35 2022
_audit_creation_method    generated by PSPW module of NWChem


_cell_length_a            10.0667
_cell_length_b             9.1552
_cell_length_c             9.2041
_cell_angle_alpha         90.0000
_cell_angle_beta          90.0000
_cell_angle_gamma         90.0000

_symmetry_space_group_name_H-M     P1  

loop_
_atom_site_type_symbol
_atom_site_fract_x
_atom_site_fract_y
_atom_site_fract_z
H             0.234567     -0.366133      0.192730
Fe            0.375180     -0.088817     -0.024562
Fe           -0.144267     -0.091924     -0.231039
Fe           -0.343640     -0.245779      0.037652
H            -0.079793     -0.270236      0.037509
H            -0.418110     -0.099011     -0.193715
H             0.065567     -0.099253     -0.039796
H             0.427545     -0.294036      0.207926
O            -0.187960     -0.250035     -0.098059
O            -0.275961     -0.070642      0.151464
O             0.208660     -0.085933      0.090242
O             0.324952     -0.246449     -0.154533
O            -0.045797     -0.243726      0.140548
O            -0.439289     -0.085761     -0.090552
O             0.046681     -0.088908     -0.145240
O             0.459206     -0.267328      0.111392
Fe            0.143220      0.089941      0.228394
Fe            0.352612      0.250239     -0.035285
Fe           -0.145303      0.241953     -0.225782
Fe           -0.347082      0.080280      0.028955
H            -0.058867      0.098737      0.055202
H            -0.396639      0.243672     -0.214534
H             0.098234      0.259397     -0.058731
H             0.418460      0.107826      0.183506
O            -0.197316      0.069990     -0.101442
O            -0.299135      0.252824      0.154067
O             0.182516      0.256635      0.090158
O             0.306355      0.080976     -0.161581
O            -0.038533      0.076490      0.153886
O            -0.439448      0.254501     -0.112568
O             0.057792      0.250977     -0.157910
O             0.452776      0.091073      0.092015
Fe            0.140524      0.415941      0.240991
Fe            0.369334     -0.419717     -0.022762
Fe           -0.134293     -0.416261     -0.230526
Fe           -0.352444      0.421490      0.018654
H            -0.091903      0.429142      0.065258
H            -0.401991     -0.412085     -0.214776
H             0.121256     -0.432805     -0.077147
H             0.408662      0.425557      0.196957
O            -0.194639      0.419836     -0.111168
O            -0.300998     -0.415983      0.161020
O             0.199162     -0.402361      0.105857
O             0.299732      0.420104     -0.146771
O            -0.061596      0.432125      0.162896
O            -0.435027     -0.407622     -0.104256
O             0.057277     -0.408149     -0.151679
O             0.446470      0.422482      0.098946
Fe            0.161974     -0.252003     -0.276444
Fe            0.343807     -0.072800      0.463764
Fe           -0.132786     -0.076616      0.280596
Fe           -0.368734     -0.258010     -0.495057
H            -0.087036     -0.237527     -0.450619
H            -0.398201     -0.078329      0.285014
H             0.091255     -0.079957      0.463614
H             0.424386     -0.239712     -0.319749
O            -0.195652     -0.245449      0.402108
O            -0.323865     -0.089716     -0.334461
O             0.184461     -0.081054     -0.401996
O             0.290521     -0.246705      0.343883
O            -0.053249     -0.255804     -0.356164
O            -0.440170     -0.091641      0.376971
O             0.050410     -0.056789      0.365999
O             0.435778     -0.248321     -0.427105
Fe            0.136648      0.087873     -0.273382
Fe            0.355960      0.254665      0.475197
Fe           -0.152531      0.260674      0.285301
Fe           -0.363624      0.073779     -0.471153
H            -0.105268      0.078084     -0.457073
H            -0.412042      0.257937      0.314228
H             0.078282      0.231725      0.455837
H             0.418881      0.079335     -0.306496
O            -0.201899      0.083516      0.409643
O            -0.306455      0.238804     -0.353506
O             0.187866      0.252984     -0.413798
O             0.304951      0.093952      0.345985
O            -0.061023      0.080298     -0.354742
O            -0.456119      0.248560      0.407152
O             0.043274      0.239685      0.354736
O             0.451519      0.088704     -0.410672
Fe            0.139321      0.420271     -0.291627
Ni            0.351535     -0.424850      0.484436
Fe           -0.145633     -0.410366      0.290906
Fe           -0.371942      0.411421     -0.459641
H            -0.086564      0.406303     -0.457962
H            -0.422558     -0.434247      0.292824
H             0.063995     -0.452660      0.474625
H             0.426482      0.397464     -0.289412
O            -0.218369      0.416588      0.403333
O            -0.317450     -0.420182     -0.345204
O             0.188623     -0.416477     -0.403163
O             0.304018      0.414719      0.346021
O            -0.059387      0.408969     -0.359185
O            -0.461148     -0.416366      0.387606
O             0.034410     -0.444546      0.375370
O             0.442827      0.427292     -0.387258
H             0.197350     -0.267878      0.354695
H             0.047941     -0.266732      0.137231
H             0.223496     -0.161971      0.162633
data_nwchem_pspw

_audit_creation_date   Fri Sep 30 20:26:29 2022
_audit_creation_method    generated by PSPW module of NWChem


_cell_length_a            10.0667
_cell_length_b             9.1552
_cell_length_c             9.2041
_cell_angle_alpha         90.0000
_cell_angle_beta          90.0000
_cell_angle_gamma         90.0000

_symmetry_space_group_name_H-M     P1  

loop_
_atom_site_type_symbol
_atom_site_fract_x
_atom_site_fract_y
_atom_site_fract_z
H             0.227910     -0.351532      0.178403
Fe            0.359044     -0.084051     -0.028045
Fe           -0.144434     -0.068456     -0.215896
Fe           -0.358172     -0.251078      0.030132
H            -0.118464     -0.250851     -0.003102
H            -0.410713     -0.092941     -0.213853
H             0.076025     -0.089984     -0.054290
H             0.418485     -0.246704      0.203278
O            -0.182184     -0.252658     -0.086818
O            -0.306609     -0.080647      0.149560
O             0.194195     -0.088795      0.101472
O             0.304150     -0.256557     -0.151186
O            -0.055676     -0.254697      0.147927
O            -0.445787     -0.091422     -0.114788
O             0.061627     -0.074381     -0.155080
O             0.451682     -0.260407      0.103779
Fe            0.147094      0.090464      0.236396
Fe            0.348093      0.251943     -0.037112
Fe           -0.136334      0.257164     -0.216957
Fe           -0.373045      0.089402      0.025811
H            -0.089838      0.069627      0.057317
H            -0.402946      0.248519     -0.219659
H             0.081437      0.250876     -0.043032
H             0.402804      0.080204      0.211294
O            -0.197457      0.089281     -0.091380
O            -0.310389      0.250155      0.158827
O             0.191077      0.255687      0.095968
O             0.304361      0.079154     -0.170835
O            -0.057228      0.088439      0.154377
O            -0.453486      0.243369     -0.119938
O             0.051927      0.247165     -0.142813
O             0.439529      0.077251      0.107771
Fe            0.133058      0.418629      0.234490
Fe            0.352460     -0.424240     -0.032470
Fe           -0.141222     -0.407597     -0.231811
Fe           -0.365809      0.420048      0.025668
H            -0.098614      0.412888      0.061344
H            -0.403513     -0.410472     -0.196202
H             0.067496     -0.416604     -0.039433
H             0.400731      0.403254      0.194508
O            -0.192292      0.413789     -0.086854
O            -0.303828     -0.424107      0.155928
O             0.195649     -0.407411      0.096448
O             0.305358      0.415776     -0.161803
O            -0.063799      0.414910      0.159524
O            -0.437569     -0.404847     -0.098998
O             0.051499     -0.417287     -0.142125
O             0.438769      0.411357      0.094656
Fe            0.149690     -0.247481     -0.289644
Fe            0.366066     -0.078145      0.476322
Fe           -0.137623     -0.090769      0.280118
Fe           -0.346912     -0.262163     -0.481329
H            -0.087454     -0.257935     -0.451337
H            -0.400045     -0.065602      0.297705
H             0.067759     -0.062635      0.451278
H             0.409657     -0.255670     -0.323593
O            -0.177011     -0.253940      0.416901
O            -0.306538     -0.093846     -0.330981
O             0.204914     -0.084476     -0.407017
O             0.292872     -0.250387      0.341963
O            -0.042587     -0.260131     -0.355835
O            -0.436544     -0.085142      0.400157
O             0.052609     -0.073525      0.349564
O             0.450634     -0.247964     -0.418485
Fe            0.144303      0.094617     -0.287444
Fe            0.356396      0.259937      0.473029
Fe           -0.157997      0.232479      0.279292
Fe           -0.353966      0.068942     -0.462274
H            -0.086320      0.086446     -0.460820
H            -0.424911      0.268126      0.298619
H             0.088943      0.251287      0.471324
H             0.424685      0.075324     -0.295706
O            -0.198206      0.073472      0.413086
O            -0.300193      0.245860     -0.343916
O             0.199267      0.258286     -0.402656
O             0.308054      0.090983      0.340731
O            -0.055620      0.069574     -0.359602
O            -0.445285      0.255361      0.405037
O             0.049333      0.246498      0.373073
O             0.453587      0.094548     -0.394718
Fe            0.146100      0.432752     -0.282208
Ni            0.365624     -0.420282      0.466350
Fe           -0.141758     -0.427964      0.281719
Fe           -0.362619      0.412252     -0.471526
H            -0.101741      0.411593     -0.441697
H            -0.406170     -0.407866      0.295766
H             0.094760     -0.414246      0.458922
H             0.411438      0.424746     -0.301591
O            -0.199251      0.413463      0.409085
O            -0.306414     -0.418475     -0.345147
O             0.212177     -0.421739     -0.413291
O             0.316335      0.414850      0.337136
O            -0.059375      0.433613     -0.348453
O            -0.449514     -0.405971      0.390195
O             0.047875     -0.434274      0.371367
O             0.447600      0.423431     -0.399362
H             0.203350     -0.240563      0.370218
H             0.033253     -0.282353      0.158810
H             0.209307     -0.155493      0.178876
data_nwchem_pspw

_audit_creation_date   Fri Sep 30 23:23:42 2022
_audit_creation_method    generated by PSPW module of NWChem


_cell_length_a            10.0667
_cell_length_b             9.1552
_cell_length_c             9.2041
_cell_angle_alpha         90.0000
_cell_angle_beta          90.0000
_cell_angle_gamma         90.0000

_symmetry_space_group_name_H-M     P1  

loop_
_atom_site_type_symbol
_atom_site_fract_x
_atom_site_fract_y
_atom_site_fract_z
H             0.215917     -0.343112      0.189171
Fe            0.354427     -0.085585     -0.042122
Fe           -0.143027     -0.072364     -0.221694
Fe           -0.369672     -0.248818      0.034376
H            -0.119310     -0.248304      0.002682
H            -0.402486     -0.096467     -0.220447
H             0.079167     -0.081349     -0.049511
H             0.399631     -0.248008      0.195749
O            -0.196891     -0.242526     -0.079675
O            -0.317482     -0.084833      0.164035
O             0.198514     -0.072674      0.095913
O             0.306355     -0.261381     -0.167434
O            -0.066956     -0.225644      0.142086
O            -0.445334     -0.091308     -0.120430
O             0.045760     -0.089410     -0.146387
O             0.437241     -0.252648      0.099535
Fe            0.136429      0.087824      0.227235
Fe            0.344609      0.257130     -0.010544
Fe           -0.149840      0.258350     -0.228410
Fe           -0.362244      0.087150      0.014268
H            -0.109834      0.095895      0.056405
H            -0.433699      0.258028     -0.204053
H             0.073978      0.257438     -0.041745
H             0.421404      0.069584      0.198674
O            -0.199559      0.083584     -0.098765
O            -0.294683      0.252076      0.145343
O             0.192653      0.267523      0.108019
O             0.302489      0.078259     -0.156011
O            -0.062755      0.079002      0.149101
O            -0.458712      0.241606     -0.097849
O             0.050506      0.234304     -0.143272
O             0.444798      0.085872      0.096710
Fe            0.144321      0.431422      0.249140
Fe            0.358890     -0.426495     -0.042821
Fe           -0.145047     -0.420135     -0.222517
Fe           -0.359741      0.421690      0.031890
H            -0.076966      0.399484      0.048634
H            -0.404605     -0.428217     -0.204978
H             0.090775     -0.436331     -0.032479
H             0.399317      0.425032      0.198653
O            -0.202635      0.419164     -0.093494
O            -0.301317     -0.422427      0.164076
O             0.202500     -0.404827      0.106124
O             0.307381      0.412408     -0.162656
O            -0.050674      0.406087      0.147773
O            -0.446696     -0.419624     -0.101588
O             0.053553     -0.434056     -0.128732
O             0.444583      0.421634      0.095304
Fe            0.150476     -0.264798     -0.281348
Fe            0.370985     -0.079092      0.472346
Fe           -0.154884     -0.077207      0.275901
Fe           -0.349255     -0.252018     -0.480539
H            -0.076497     -0.261861     -0.442514
H            -0.407250     -0.083067      0.284728
H             0.094052     -0.090898      0.437116
H             0.434585     -0.257516     -0.288106
O            -0.182353     -0.252717      0.412446
O            -0.300838     -0.089172     -0.341275
O             0.206967     -0.096238     -0.400097
O             0.296547     -0.242210      0.345687
O            -0.051337     -0.251502     -0.345834
O            -0.442542     -0.088056      0.391035
O             0.058304     -0.075607      0.344123
O             0.450917     -0.253995     -0.391634
Fe            0.134905      0.064991     -0.287334
Fe            0.352953      0.260314      0.476410
Fe           -0.140352      0.252783      0.280847
Fe           -0.346701      0.084402     -0.466410
H            -0.089507      0.072915     -0.453820
H            -0.414365      0.246698      0.296949
H             0.079835      0.246601      0.467110
H             0.399543      0.066610     -0.304706
O            -0.187669      0.082815      0.413025
O            -0.308219      0.247259     -0.341889
O             0.194759      0.225305     -0.408157
O             0.302933      0.084285      0.340613
O            -0.064711      0.077886     -0.345860
O            -0.451685      0.244842      0.397047
O             0.054346      0.259264      0.364000
O             0.447520      0.087814     -0.398357
Fe            0.152086      0.399423     -0.281605
Ni            0.375714     -0.408681      0.473719
Fe           -0.139119     -0.415162      0.271069
Fe           -0.356219      0.421852     -0.469850
H            -0.090911      0.428376     -0.454732
H            -0.408258     -0.432853      0.298092
H             0.084028     -0.412521      0.452551
H             0.410670      0.411300     -0.300060
O            -0.191536      0.414649      0.404709
O            -0.304085     -0.424996     -0.346726
O             0.202630     -0.431822     -0.407026
O             0.324888      0.416848      0.332174
O            -0.062557      0.420357     -0.352621
O            -0.431318     -0.420602      0.399198
O             0.045509     -0.409114      0.346974
O             0.450502      0.420276     -0.396111
H             0.213441     -0.234356      0.396336
H             0.023447     -0.209733      0.149869
H             0.206004     -0.139673      0.171544
data_nwchem_pspw

_audit_creation_date   Sat Oct  1 02:23:48 2022
_audit_creation_method    generated by PSPW module of NWChem


_cell_length_a            10.0667
_cell_length_b             9.1552
_cell_length_c             9.2041
_cell_angle_alpha         90.0000
_cell_angle_beta          90.0000
_cell_angle_gamma         90.0000

_symmetry_space_group_name_H-M     P1  

loop_
_atom_site_type_symbol
_atom_site_fract_x
_atom_site_fract_y
_atom_site_fract_z
H             0.232842     -0.347004      0.148519
Fe            0.360205     -0.096239     -0.028131
Fe           -0.148348     -0.072067     -0.218373
Fe           -0.362988     -0.248112      0.034694
H            -0.124118     -0.258838      0.001388
H            -0.416738     -0.081336     -0.212294
H             0.068163     -0.094795     -0.060798
H             0.458363     -0.253555      0.206668
O            -0.192511     -0.249863     -0.083679
O            -0.303628     -0.084596      0.161161
O             0.193130     -0.083515      0.105658
O             0.302971     -0.242914     -0.154194
O            -0.066418     -0.270561      0.135373
O            -0.449610     -0.065757     -0.111202
O             0.054842     -0.077964     -0.161842
O             0.439084     -0.247074      0.106915
Fe            0.142152      0.084017      0.231791
Fe            0.355785      0.244697     -0.015370
Fe           -0.147907      0.258550     -0.233806
Fe           -0.359492      0.081634      0.028347
H            -0.092861      0.093003      0.047390
H            -0.401761      0.229646     -0.179844
H             0.101796      0.274347     -0.059586
H             0.421501      0.061805      0.194702
O            -0.191069      0.093125     -0.084633
O            -0.306690      0.245498      0.161296
O             0.195846      0.252616      0.093658
O             0.289339      0.098724     -0.143442
O            -0.063779      0.079326      0.148923
O            -0.441194      0.257535     -0.090732
O             0.051267      0.267559     -0.149834
O             0.444356      0.066189      0.096417
Fe            0.139585      0.412986      0.231087
Fe            0.364981     -0.429269     -0.036986
Fe           -0.133805     -0.429568     -0.236035
Fe           -0.352004      0.421349      0.038791
H            -0.075450      0.416059      0.044238
H            -0.396972     -0.403919     -0.203753
H             0.097050     -0.419851     -0.056835
H             0.415207      0.402295      0.204619
O            -0.191692      0.426076     -0.099099
O            -0.315902     -0.412949      0.169013
O             0.203193     -0.419592      0.080391
O             0.309459      0.419013     -0.159628
O            -0.060370      0.404410      0.148726
O            -0.436280     -0.398969     -0.105282
O             0.056467     -0.413320     -0.153677
O             0.447412      0.418595      0.104049
Fe            0.138173     -0.243444     -0.292306
Fe            0.351293     -0.096297      0.461717
Fe           -0.136816     -0.093540      0.284608
Fe           -0.354821     -0.245427     -0.466646
H            -0.105219     -0.234736     -0.453799
H            -0.413221     -0.086003      0.299789
H             0.076476     -0.072086      0.465169
H             0.411911     -0.251950     -0.316920
O            -0.193954     -0.262482      0.414308
O            -0.310537     -0.080823     -0.333293
O             0.203616     -0.070406     -0.398932
O             0.288522     -0.264166      0.337353
O            -0.066481     -0.236366     -0.356103
O            -0.444259     -0.066865      0.395206
O             0.052788     -0.075551      0.364308
O             0.442747     -0.260116     -0.416462
Fe            0.146610      0.097863     -0.276870
Fe            0.358300      0.245140      0.471727
Fe           -0.144765      0.242103      0.278482
Fe           -0.357394      0.096061     -0.485375
H            -0.098006      0.090788     -0.438374
H            -0.385548      0.257508      0.309703
H             0.083022      0.286200      0.437691
H             0.404533      0.094810     -0.296900
O            -0.197378      0.082289      0.406368
O            -0.322147      0.247250     -0.342450
O             0.197458      0.255046     -0.412287
O             0.305517      0.075669      0.341603
O            -0.060658      0.095129     -0.342445
O            -0.447370      0.276189      0.392999
O             0.046566      0.240543      0.351991
O             0.435649      0.079456     -0.394607
Fe            0.150912      0.416984     -0.281639
Ni            0.361338     -0.416725      0.478790
Fe           -0.138738     -0.426637      0.282281
Fe           -0.355703      0.427972     -0.467329
H            -0.094203      0.399819     -0.452845
H            -0.419684     -0.422858      0.298097
H             0.075175     -0.421224      0.458911
H             0.427220      0.403734     -0.298481
O            -0.197136      0.410603      0.404453
O            -0.291691     -0.418860     -0.348220
O             0.198878     -0.412914     -0.399891
O             0.321631      0.408310      0.337155
O            -0.050580      0.411041     -0.359237
O            -0.459834     -0.405224      0.389469
O             0.063556     -0.427308      0.350569
O             0.447138      0.424727     -0.396791
H             0.195651     -0.265869      0.367507
H             0.025345     -0.293253      0.158667
H             0.219091     -0.151873      0.179533
data_nwchem_pspw

_audit_creation_date   Sat Oct  1 05:24:01 2022
_audit_creation_method    generated by PSPW module of NWChem


_cell_length_a            10.0667
_cell_length_b             9.1552
_cell_length_c             9.2041
_cell_angle_alpha         90.0000
_cell_angle_beta          90.0000
_cell_angle_gamma         90.0000

_symmetry_space_group_name_H-M     P1  

loop_
_atom_site_type_symbol
_atom_site_fract_x
_atom_site_fract_y
_atom_site_fract_z
H             0.211961     -0.336146      0.146934
Fe            0.368268     -0.078806     -0.014199
Fe           -0.144770     -0.077932     -0.246610
Fe           -0.365481     -0.241883      0.044403
H            -0.136603     -0.259425      0.001232
H            -0.418679     -0.072670     -0.200664
H             0.093615     -0.081343     -0.048306
H             0.414049     -0.269323      0.200782
O            -0.192088     -0.251370     -0.097700
O            -0.300901     -0.090899      0.169106
O             0.188638     -0.101232      0.101496
O             0.303201     -0.229273     -0.150707
O            -0.079482     -0.247990      0.139492
O            -0.439551     -0.094204     -0.100677
O             0.053167     -0.088337     -0.145158
O             0.440797     -0.255576      0.100455
Fe            0.139273      0.082157      0.213519
Fe            0.358726      0.257793     -0.025282
Fe           -0.139279      0.237912     -0.219398
Fe           -0.359688      0.076302      0.041669
H            -0.090481      0.083233      0.045080
H            -0.408192      0.228335     -0.187979
H             0.073615      0.260174     -0.041643
H             0.415747      0.098980      0.218910
O            -0.199844      0.075104     -0.093687
O            -0.307057      0.249163      0.152772
O             0.199541      0.253291      0.093938
O             0.308277      0.083282     -0.135979
O            -0.052193      0.103544      0.139278
O            -0.439198      0.237492     -0.090875
O             0.054800      0.253131     -0.146061
O             0.452517      0.089796      0.122508
Fe            0.142555      0.421267      0.220174
Fe            0.361557     -0.419275     -0.050958
Fe           -0.140508     -0.421593     -0.226965
Fe           -0.353315      0.414029      0.017202
H            -0.109590      0.420637      0.057312
H            -0.400890     -0.401643     -0.191930
H             0.079118     -0.412213     -0.058352
H             0.419487      0.436194      0.209410
O            -0.189376      0.420255     -0.089821
O            -0.303913     -0.409895      0.158475
O             0.205421     -0.421300      0.087134
O             0.301687      0.416742     -0.164688
O            -0.062356      0.424297      0.149013
O            -0.439012     -0.409016     -0.090459
O             0.053211     -0.422333     -0.156290
O             0.453921      0.434693      0.105832
Fe            0.149914     -0.267936     -0.277261
Fe            0.339294     -0.086892      0.477496
Fe           -0.133635     -0.073765      0.279050
Fe           -0.359352     -0.258627     -0.483612
H            -0.103945     -0.254797     -0.432873
H            -0.438847     -0.075438      0.306046
H             0.089490     -0.069724      0.446688
H             0.401719     -0.234366     -0.296998
O            -0.198272     -0.235428      0.408769
O            -0.315652     -0.072669     -0.350042
O             0.185457     -0.085926     -0.396118
O             0.280544     -0.261834      0.351136
O            -0.053103     -0.243988     -0.347277
O            -0.460730     -0.079537      0.410735
O             0.057692     -0.063221      0.344304
O             0.441316     -0.245624     -0.392354
Fe            0.147226      0.083983     -0.268352
Fe            0.352503      0.256108      0.466914
Fe           -0.150537      0.247034      0.271330
Fe           -0.359733      0.087819     -0.484401
H            -0.084959      0.100782     -0.455089
H            -0.405366      0.257482      0.306607
H             0.099468      0.235657      0.435677
H             0.429475      0.090513     -0.283957
O            -0.195887      0.095111      0.405207
O            -0.299909      0.245011     -0.339762
O             0.190099      0.247102     -0.411237
O             0.306437      0.092008      0.333025
O            -0.051080      0.089806     -0.353957
O            -0.446695      0.262199      0.400835
O             0.057770      0.253010      0.342538
O             0.446891      0.094621     -0.389117
Fe            0.149555      0.416011     -0.284512
Ni            0.371139     -0.412436      0.475766
Fe           -0.144399     -0.425838      0.293668
Fe           -0.355920      0.405156     -0.462309
H            -0.086882      0.401892     -0.445903
H            -0.406574     -0.411900      0.295121
H             0.063475     -0.447927      0.465078
H             0.431363      0.442304     -0.295451
O            -0.189019      0.415021      0.415839
O            -0.306394     -0.414269     -0.350620
O             0.185923     -0.415196     -0.416420
O             0.308542      0.426761      0.347891
O            -0.056697      0.419291     -0.348168
O            -0.438987     -0.427906      0.394362
O             0.053163     -0.423267      0.357046
O             0.447863      0.427135     -0.396589
H             0.191710     -0.303461      0.367143
H             0.015155     -0.253728      0.143168
H             0.196022     -0.151921      0.195586
data_nwchem_pspw

_audit_creation_date   Sat Oct  1 08:25:34 2022
_audit_creation_method    generated by PSPW module of NWChem


_cell_length_a            10.0667
_cell_length_b             9.1552
_cell_length_c             9.2041
_cell_angle_alpha         90.0000
_cell_angle_beta          90.0000
_cell_angle_gamma         90.0000

_symmetry_space_group_name_H-M     P1  

loop_
_atom_site_type_symbol
_atom_site_fract_x
_atom_site_fract_y
_atom_site_fract_z
H             0.121235     -0.349855      0.094762
Fe            0.370333     -0.086964     -0.030008
Fe           -0.142803     -0.080263     -0.231333
Fe           -0.357396     -0.254711      0.043498
H            -0.107303     -0.251380     -0.005034
H            -0.414765     -0.113885     -0.211888
H             0.094275     -0.064916     -0.057428
H             0.406008     -0.263907      0.208405
O            -0.181675     -0.245373     -0.077061
O            -0.307473     -0.081305      0.172944
O             0.191251     -0.089427      0.099460
O             0.299480     -0.254508     -0.148690
O            -0.055074     -0.254562      0.146380
O            -0.431667     -0.110794     -0.102501
O             0.055237     -0.088721     -0.150346
O             0.447492     -0.263917      0.110837
Fe            0.133457      0.088256      0.236987
Fe            0.351217      0.254144     -0.033034
Fe           -0.147227      0.253481     -0.218807
Fe           -0.355076      0.092036      0.020818
H            -0.085384      0.088485      0.055209
H            -0.389769      0.250521     -0.203266
H             0.082803      0.247716     -0.049857
H             0.427792      0.079815      0.191603
O            -0.200997      0.087695     -0.101545
O            -0.313805      0.244411      0.172874
O             0.186374      0.247282      0.098399
O             0.305467      0.065541     -0.159296
O            -0.056165      0.092939      0.150605
O            -0.439995      0.247727     -0.100269
O             0.058194      0.242058     -0.152310
O             0.442750      0.071727      0.091292
Fe            0.153912      0.427207      0.243362
Fe            0.359114     -0.417853     -0.033475
Fe           -0.139217     -0.417610     -0.226883
Fe           -0.368248      0.410017      0.031316
H            -0.080398      0.401965      0.054723
H            -0.392280     -0.425814     -0.189864
H             0.088090     -0.441388     -0.064317
H             0.396434      0.410975      0.213263
O            -0.207719      0.432479     -0.098744
O            -0.297368     -0.430047      0.156334
O             0.186700     -0.422908      0.087589
O             0.302083      0.418367     -0.168343
O            -0.046204      0.407913      0.152223
O            -0.445839     -0.424849     -0.093187
O             0.051918     -0.409292     -0.157157
O             0.430811      0.400474      0.104780
Fe            0.142069     -0.247321     -0.286021
Fe            0.348100     -0.082286      0.458792
Fe           -0.136504     -0.090546      0.275892
Fe           -0.365162     -0.254042     -0.473079
H            -0.113264     -0.250916     -0.448764
H            -0.415132     -0.077626      0.300331
H             0.068399     -0.098688      0.445977
H             0.404613     -0.255752     -0.300156
O            -0.203545     -0.259460      0.403398
O            -0.306503     -0.096274     -0.332365
O             0.203559     -0.088441     -0.414021
O             0.286939     -0.260320      0.336311
O            -0.057746     -0.242330     -0.357292
O            -0.447930     -0.076092      0.400006
O             0.054355     -0.078909      0.345352
O             0.436705     -0.243418     -0.401678
Fe            0.146764      0.073314     -0.283789
Fe            0.366063      0.251042      0.475311
Fe           -0.140070      0.256204      0.283872
Fe           -0.353833      0.098747     -0.475613
H            -0.104751      0.088578     -0.455129
H            -0.427598      0.253650      0.301492
H             0.089813      0.252808      0.462358
H             0.414276      0.069987     -0.300770
O            -0.195364      0.086278      0.407494
O            -0.315271      0.259091     -0.334630
O             0.191868      0.237327     -0.408327
O             0.307234      0.100910      0.337437
O            -0.060748      0.074755     -0.357488
O            -0.439011      0.260259      0.404721
O             0.057110      0.251252      0.366173
O             0.455924      0.077437     -0.394167
Fe            0.148483      0.413716     -0.301025
Ni            0.364270     -0.404875      0.484932
Fe           -0.137967     -0.408536      0.282321
Fe           -0.359555      0.425492     -0.469947
H            -0.106432      0.400232     -0.455824
H            -0.419241     -0.442508      0.311007
H             0.089234     -0.415494      0.457718
H             0.402343      0.402656     -0.291992
O            -0.196692      0.413180      0.413480
O            -0.311508     -0.417648     -0.334187
O             0.193334     -0.414786     -0.417445
O             0.321852      0.422439      0.332982
O            -0.057984      0.407083     -0.362266
O            -0.453203     -0.421381      0.404980
O             0.063543     -0.421728      0.353601
O             0.443624      0.418452     -0.387589
H             0.194385     -0.297984      0.335920
H             0.032232     -0.226335      0.164150
H             0.202003     -0.166259      0.170511
data_nwchem_pspw

_audit_creation_date   Sat Oct  1 11:24:18 2022
_audit_creation_method    generated by PSPW module of NWChem


_cell_length_a            10.0667
_cell_length_b             9.1552
_cell_length_c             9.2041
_cell_angle_alpha         90.0000
_cell_angle_beta          90.0000
_cell_angle_gamma         90.0000

_symmetry_space_group_name_H-M     P1  

loop_
_atom_site_type_symbol
_atom_site_fract_x
_atom_site_fract_y
_atom_site_fract_z
H             0.236649     -0.365072      0.190804
Fe            0.356021     -0.082463     -0.039992
Fe           -0.147568     -0.080886     -0.224592
Fe           -0.353139     -0.237129      0.038366
H            -0.084023     -0.247700      0.026512
H            -0.411361     -0.074702     -0.212859
H             0.108761     -0.075215     -0.060662
H             0.421386     -0.224956      0.200262
O            -0.199178     -0.245532     -0.088570
O            -0.290717     -0.073422      0.159505
O             0.200215     -0.083072      0.102192
O             0.307131     -0.249712     -0.160046
O            -0.044971     -0.273398      0.120257
O            -0.432021     -0.073057     -0.111405
O             0.063543     -0.082341     -0.152499
O             0.444030     -0.248454      0.101308
Fe            0.140482      0.094155      0.223285
Fe            0.354032      0.266576     -0.019354
Fe           -0.151904      0.254263     -0.223677
Fe           -0.357120      0.083661      0.030876
H            -0.093907      0.083232      0.052282
H            -0.403600      0.245463     -0.197782
H             0.090291      0.260423     -0.043143
H             0.419190      0.076400      0.184723
O            -0.185620      0.082952     -0.096827
O            -0.311903      0.258324      0.153000
O             0.199743      0.261177      0.102309
O             0.314016      0.090423     -0.146856
O            -0.056387      0.089342      0.149969
O            -0.441794      0.253521     -0.098882
O             0.066915      0.251045     -0.147237
O             0.452772      0.086720      0.086634
Fe            0.145017      0.417139      0.240137
Fe            0.361588     -0.418043     -0.019584
Fe           -0.147294     -0.412715     -0.218741
Fe           -0.351543      0.419537      0.022036
H            -0.091683      0.414982      0.039699
H            -0.432596     -0.390225     -0.191482
H             0.080459     -0.448483     -0.045667
H             0.401437      0.422571      0.203416
O            -0.192059      0.422131     -0.092990
O            -0.303380     -0.420843      0.164091
O             0.193393     -0.416711      0.109839
O             0.304620      0.425591     -0.147322
O            -0.059547      0.418271      0.140269
O            -0.440291     -0.402115     -0.090536
O             0.054623     -0.417882     -0.140239
O             0.449294      0.423101      0.106540
Fe            0.143649     -0.246073     -0.280780
Fe            0.347592     -0.092085      0.467508
Fe           -0.127036     -0.091597      0.271538
Fe           -0.354992     -0.259180     -0.487877
H            -0.072532     -0.259865     -0.462862
H            -0.428466     -0.072754      0.300839
H             0.073140     -0.052375      0.440552
H             0.417780     -0.245788     -0.301041
O            -0.189486     -0.262326      0.396352
O            -0.308300     -0.080979     -0.352223
O             0.195317     -0.078077     -0.403270
O             0.295514     -0.271555      0.340168
O            -0.062340     -0.245879     -0.355224
O            -0.455792     -0.108247      0.391790
O             0.058541     -0.083730      0.343327
O             0.443590     -0.261650     -0.401895
Fe            0.145328      0.092524     -0.277575
Fe            0.353311      0.248102      0.467682
Fe           -0.157660      0.245534      0.278934
Fe           -0.358333      0.092766     -0.466957
H            -0.068846      0.070816     -0.453120
H            -0.431506      0.271051      0.283611
H             0.092275      0.244208      0.461334
H             0.411176      0.078862     -0.297763
O            -0.207407      0.077464      0.404862
O            -0.316108      0.257785     -0.335785
O             0.177791      0.256056     -0.417293
O             0.317625      0.075589      0.334132
O            -0.056603      0.086828     -0.351093
O            -0.456833      0.249362      0.384640
O             0.045707      0.240478      0.366138
O             0.436833      0.076260     -0.397419
Fe            0.145063      0.417721     -0.293992
Ni            0.366286     -0.417145      0.486838
Fe           -0.140878     -0.436138      0.291402
Fe           -0.360693      0.416568     -0.478763
H            -0.084702      0.404506     -0.447320
H            -0.416588     -0.419067      0.295424
H             0.099070     -0.432071      0.467317
H             0.417949      0.402702     -0.291425
O            -0.201860      0.394640      0.406243
O            -0.301688     -0.430228     -0.357840
O             0.205493     -0.408990     -0.396982
O             0.311357      0.413470      0.341200
O            -0.053697      0.409370     -0.350465
O            -0.452548     -0.421963      0.397093
O             0.056168     -0.427457      0.369789
O             0.446086      0.409098     -0.391486
H             0.201882     -0.291551      0.365004
H             0.046515     -0.308729      0.106166
H             0.207321     -0.156967      0.176920
data_nwchem_pspw

_audit_creation_date   Sat Oct  1 14:25:14 2022
_audit_creation_method    generated by PSPW module of NWChem


_cell_length_a            10.0667
_cell_length_b             9.1552
_cell_length_c             9.2041
_cell_angle_alpha         90.0000
_cell_angle_beta          90.0000
_cell_angle_gamma         90.0000

_symmetry_space_group_name_H-M     P1  

loop_
_atom_site_type_symbol
_atom_site_fract_x
_atom_site_fract_y
_atom_site_fract_z
H             0.236602     -0.348463      0.159173
Fe            0.366070     -0.083356     -0.031094
Fe           -0.145502     -0.065751     -0.223830
Fe           -0.356299     -0.252755      0.033001
H            -0.126003     -0.252218     -0.005615
H            -0.399119     -0.080127     -0.198589
H             0.081044     -0.078275     -0.043094
H             0.416061     -0.231632      0.200875
O            -0.183534     -0.247905     -0.094289
O            -0.304451     -0.080696      0.159140
O             0.198570     -0.090927      0.099058
O             0.325128     -0.251089     -0.163677
O            -0.073269     -0.262972      0.137747
O            -0.434163     -0.095283     -0.102624
O             0.059147     -0.092907     -0.143195
O             0.446125     -0.245185      0.106041
Fe            0.141011      0.085567      0.220310
Fe            0.344787      0.249364     -0.027605
Fe           -0.148183      0.252700     -0.222478
Fe           -0.359285      0.073485      0.036384
H            -0.084286      0.090493      0.047719
H            -0.409165      0.232893     -0.187314
H             0.069222      0.245940     -0.043963
H             0.400085      0.101171      0.204174
O            -0.193098      0.086414     -0.086326
O            -0.304072      0.241423      0.159931
O             0.184433      0.251559      0.087023
O             0.298148      0.075069     -0.154600
O            -0.052497      0.074546      0.144678
O            -0.448121      0.245458     -0.099523
O             0.048554      0.231849     -0.143289
O             0.448473      0.078953      0.115157
Fe            0.141670      0.417900      0.227123
Fe            0.368599     -0.427315     -0.043346
Fe           -0.136819     -0.414922     -0.228752
Fe           -0.344716      0.405726      0.031543
H            -0.085247      0.408209      0.040944
H            -0.388525     -0.426630     -0.188199
H             0.064672     -0.438935     -0.044321
H             0.404289      0.425818      0.201131
O            -0.185390      0.412033     -0.089560
O            -0.308441     -0.425829      0.154925
O             0.205031     -0.416947      0.087377
O             0.299492      0.410259     -0.161293
O            -0.065434      0.416640      0.145542
O            -0.423076     -0.409828     -0.089184
O             0.063075     -0.435118     -0.149744
O             0.431199      0.419155      0.098175
Fe            0.160856     -0.253859     -0.273099
Fe            0.346810     -0.068422      0.475130
Fe           -0.139416     -0.079476      0.270207
Fe           -0.362647     -0.256196     -0.465696
H            -0.065121     -0.232094     -0.455723
H            -0.406934     -0.079621      0.301558
H             0.072614     -0.068381      0.459669
H             0.425968     -0.241855     -0.308392
O            -0.200913     -0.247673      0.398355
O            -0.312981     -0.075870     -0.336882
O             0.184636     -0.082090     -0.412545
O             0.284942     -0.258158      0.354595
O            -0.062270     -0.241899     -0.357104
O            -0.445734     -0.089419      0.393944
O             0.048422     -0.077767      0.353735
O             0.447159     -0.223039     -0.409144
Fe            0.139635      0.072026     -0.283169
Fe            0.351339      0.260068      0.472212
Fe           -0.142351      0.254273      0.273156
Fe           -0.356618      0.082839     -0.475364
H            -0.089944      0.085237     -0.458588
H            -0.417835      0.259248      0.301877
H             0.096711      0.233611      0.463900
H             0.412726      0.097520     -0.296846
O            -0.210336      0.089039      0.388720
O            -0.305946      0.252908     -0.344731
O             0.184107      0.243771     -0.412651
O             0.306745      0.088851      0.340853
O            -0.050367      0.087637     -0.362285
O            -0.446804      0.255238      0.400429
O             0.056641      0.245410      0.359025
O             0.446111      0.089489     -0.391722
Fe            0.141410      0.420976     -0.279307
Ni            0.363043     -0.407964      0.471070
Fe           -0.142443     -0.418372      0.293716
Fe           -0.358446      0.418392     -0.470980
H            -0.087257      0.414993     -0.450661
H            -0.406922     -0.414312      0.295689
H             0.077252     -0.423290      0.449008
H             0.420690      0.406352     -0.308122
O            -0.186559      0.414378      0.430932
O            -0.307488     -0.424693     -0.325136
O             0.190213     -0.410818     -0.404004
O             0.312173      0.422369      0.336917
O            -0.053269      0.415654     -0.348194
O            -0.446960     -0.404911      0.392639
O             0.044193     -0.427193      0.352892
O             0.442418      0.429427     -0.407311
H             0.195083     -0.271093      0.385572
H             0.011381     -0.219697      0.144891
H             0.225474     -0.153589      0.178499
data_nwchem_pspw

_audit_creation_date   Sat Oct  1 17:26:08 2022
_audit_creation_method    generated by PSPW module of NWChem


_cell_length_a            10.0667
_cell_length_b             9.1552
_cell_length_c             9.2041
_cell_angle_alpha         90.0000
_cell_angle_beta          90.0000
_cell_angle_gamma         90.0000

_symmetry_space_group_name_H-M     P1  

loop_
_atom_site_type_symbol
_atom_site_fract_x
_atom_site_fract_y
_atom_site_fract_z
H             0.225593     -0.319398      0.147317
Fe            0.362262     -0.085516     -0.030710
Fe           -0.146032     -0.087382     -0.235109
Fe           -0.343890     -0.235849      0.026011
H            -0.093355     -0.260945      0.037616
H            -0.394922     -0.078235     -0.199782
H             0.059779     -0.088676     -0.064361
H             0.440073     -0.266299      0.198923
O            -0.181007     -0.251608     -0.102353
O            -0.309852     -0.084462      0.161973
O             0.194074     -0.102008      0.108586
O             0.300920     -0.248688     -0.158307
O            -0.057164     -0.255310      0.137705
O            -0.438431     -0.066195     -0.103862
O             0.047170     -0.078514     -0.165306
O             0.455471     -0.241858      0.099156
Fe            0.136290      0.082848      0.222408
Fe            0.356275      0.258065     -0.012106
Fe           -0.146000      0.253523     -0.219921
Fe           -0.353189      0.099286      0.022809
H            -0.100992      0.065789      0.042841
H            -0.415299      0.261250     -0.199523
H             0.094929      0.255016     -0.045194
H             0.404929      0.089326      0.206231
O            -0.187520      0.083111     -0.082048
O            -0.310189      0.249070      0.167425
O             0.180641      0.265847      0.080148
O             0.299886      0.079817     -0.144088
O            -0.057005      0.072891      0.144696
O            -0.452969      0.258305     -0.103384
O             0.062076      0.248849     -0.154644
O             0.437044      0.094764      0.109676
Fe            0.146423      0.427359      0.245391
Fe            0.367656     -0.411696     -0.043042
Fe           -0.148136     -0.427513     -0.233860
Fe           -0.365070      0.416744      0.040079
H            -0.088164      0.401082      0.041410
H            -0.399538     -0.418580     -0.206497
H             0.054180     -0.417693     -0.046276
H             0.397446      0.439646      0.197801
O            -0.221464      0.415703     -0.107474
O            -0.285562     -0.406667      0.145131
O             0.204058     -0.403987      0.094219
O             0.312893      0.414833     -0.151436
O            -0.057656      0.414659      0.137948
O            -0.437848     -0.412024     -0.111260
O             0.040452     -0.418146     -0.147954
O             0.435116      0.431224      0.102357
Fe            0.139292     -0.251992     -0.280922
Fe            0.355175     -0.098553      0.481604
Fe           -0.147443     -0.084683      0.291169
Fe           -0.358352     -0.261080     -0.472618
H            -0.086473     -0.257598     -0.470736
H            -0.424144     -0.103278      0.307201
H             0.077602     -0.071460      0.455870
H             0.392169     -0.252062     -0.292930
O            -0.189286     -0.256536      0.416408
O            -0.311617     -0.084189     -0.342486
O             0.184711     -0.083928     -0.417271
O             0.308081     -0.263623      0.336835
O            -0.059798     -0.262695     -0.367761
O            -0.444977     -0.091712      0.407251
O             0.043557     -0.052351      0.357226
O             0.435754     -0.251240     -0.389109
Fe            0.145119      0.088958     -0.282292
Fe            0.354871      0.246907      0.474080
Fe           -0.136401      0.245390      0.269472
Fe           -0.362574      0.083639     -0.468848
H            -0.097702      0.089088     -0.452965
H            -0.416798      0.266281      0.309478
H             0.084451      0.249454      0.458761
H             0.403961      0.123794     -0.301697
O            -0.205331      0.092521      0.404331
O            -0.308528      0.241072     -0.333637
O             0.189697      0.253700     -0.423047
O             0.298093      0.058737      0.350894
O            -0.064906      0.085846     -0.351194
O            -0.456969      0.248458      0.403323
O             0.055396      0.256255      0.355642
O             0.434979      0.092828     -0.394332
Fe            0.158751      0.419159     -0.279079
Ni            0.369746     -0.423082      0.476308
Fe           -0.137099     -0.423944      0.271503
Fe           -0.353438      0.414728     -0.467435
H            -0.088529      0.407786     -0.456162
H            -0.406621     -0.428394      0.297102
H             0.081569     -0.411330      0.453300
H             0.437139      0.424444     -0.294777
O            -0.194296      0.403343      0.404662
O            -0.315509     -0.414281     -0.349629
O             0.192956     -0.412539     -0.403928
O             0.316375      0.416761      0.343551
O            -0.057223      0.413101     -0.356825
O            -0.447196     -0.409563      0.390035
O             0.046243     -0.420890      0.358788
O             0.453053      0.416750     -0.397849
H             0.215116     -0.275934      0.357865
H             0.036374     -0.274055      0.125828
H             0.224749     -0.152896      0.192782
data_nwchem_pspw

_audit_creation_date   Sat Oct  1 20:25:47 2022
_audit_creation_method    generated by PSPW module of NWChem


_cell_length_a            10.0667
_cell_length_b             9.1552
_cell_length_c             9.2041
_cell_angle_alpha         90.0000
_cell_angle_beta          90.0000
_cell_angle_gamma         90.0000

_symmetry_space_group_name_H-M     P1  

loop_
_atom_site_type_symbol
_atom_site_fract_x
_atom_site_fract_y
_atom_site_fract_z
H             0.238728     -0.351401      0.198525
Fe            0.353837     -0.077092     -0.048175
Fe           -0.141427     -0.078796     -0.225908
Fe           -0.371484     -0.249933      0.045521
H            -0.126367     -0.276977     -0.006159
H            -0.408530     -0.099146     -0.194584
H             0.090863     -0.068771     -0.059187
H             0.382681     -0.242965      0.188422
O            -0.190190     -0.257357     -0.092721
O            -0.314232     -0.084972      0.165915
O             0.196944     -0.067719      0.094791
O             0.301348     -0.247522     -0.164123
O            -0.072258     -0.263614      0.146679
O            -0.444383     -0.089050     -0.101460
O             0.057419     -0.080195     -0.157815
O             0.432515     -0.244909      0.098884
Fe            0.148090      0.088844      0.240972
Fe            0.361823      0.260826     -0.012729
Fe           -0.155000      0.247136     -0.227351
Fe           -0.359021      0.069488      0.018613
H            -0.074408      0.065634      0.041111
H            -0.405329      0.235226     -0.197485
H             0.072693      0.230438     -0.042714
H             0.420687      0.071577      0.197639
O            -0.183883      0.073267     -0.084189
O            -0.291524      0.237138      0.154271
O             0.207932      0.250255      0.112063
O             0.307936      0.091620     -0.142994
O            -0.043007      0.078827      0.150680
O            -0.440908      0.238603     -0.098743
O             0.052050      0.244133     -0.147235
O             0.456207      0.066941      0.096878
Fe            0.139932      0.421349      0.229654
Fe            0.358315     -0.417654     -0.039246
Fe           -0.133819     -0.411717     -0.232316
Fe           -0.355791      0.399596      0.035005
H            -0.088205      0.403437      0.042227
H            -0.411627     -0.422035     -0.199405
H             0.079606     -0.448824     -0.055981
H             0.402572      0.417348      0.219476
O            -0.185672      0.431011     -0.087113
O            -0.302593     -0.418336      0.158897
O             0.199762     -0.398291      0.115161
O             0.302923      0.405514     -0.160931
O            -0.043854      0.403758      0.140259
O            -0.448244     -0.415841     -0.097856
O             0.054339     -0.416796     -0.152201
O             0.441654      0.405815      0.110656
Fe            0.140348     -0.248441     -0.303755
Fe            0.356603     -0.073207      0.476739
Fe           -0.141787     -0.093727      0.274976
Fe           -0.344151     -0.250013     -0.464668
H            -0.097629     -0.248019     -0.452400
H            -0.397505     -0.068689      0.297554
H             0.066038     -0.060730      0.463076
H             0.418663     -0.241599     -0.312768
O            -0.196573     -0.257185      0.412444
O            -0.300627     -0.082493     -0.338826
O             0.194119     -0.071380     -0.393283
O             0.291802     -0.240963      0.342725
O            -0.060422     -0.252999     -0.357196
O            -0.446845     -0.081228      0.392615
O             0.045175     -0.096856      0.365885
O             0.446548     -0.241785     -0.415075
Fe            0.150474      0.090519     -0.273156
Fe            0.361474      0.264142      0.472826
Fe           -0.144037      0.240276      0.282191
Fe           -0.353155      0.081078     -0.477059
H            -0.078938      0.071595     -0.464963
H            -0.399101      0.293218      0.308548
H             0.080140      0.249058      0.460265
H             0.420170      0.115560     -0.308517
O            -0.195681      0.074592      0.408419
O            -0.307291      0.250266     -0.341774
O             0.188105      0.259483     -0.422094
O             0.313093      0.096619      0.348464
O            -0.052176      0.067056     -0.364301
O            -0.453418      0.259299      0.390356
O             0.040738      0.236547      0.360260
O             0.447492      0.082145     -0.398692
Fe            0.131824      0.404687     -0.286967
Ni            0.364223     -0.398670      0.473899
Fe           -0.140064     -0.422806      0.269963
Fe           -0.364268      0.428474     -0.461946
H            -0.101855      0.389261     -0.452286
H            -0.402676     -0.423159      0.295528
H             0.085560     -0.427130      0.461547
H             0.413957      0.449064     -0.296327
O            -0.201323      0.407112      0.405465
O            -0.313675     -0.409808     -0.318944
O             0.181070     -0.413403     -0.417091
O             0.320132      0.439778      0.338891
O            -0.057735      0.390681     -0.355403
O            -0.437388     -0.418455      0.395771
O             0.049412     -0.427546      0.351569
O             0.443072      0.423391     -0.392560
H             0.196394     -0.228258      0.354696
H             0.019321     -0.267695      0.171580
H             0.210685     -0.154436      0.149618