data_nwchem_pspw

_audit_creation_date   Mon Feb 27 16:19:11 2023
_audit_creation_method    generated by PSPW module of NWChem


_cell_length_a            10.0667
_cell_length_b             9.1552
_cell_length_c             9.2041
_cell_angle_alpha         90.0000
_cell_angle_beta          90.0000
_cell_angle_gamma         90.0000

_symmetry_space_group_name_H-M     P1  

loop_
_atom_site_type_symbol
_atom_site_fract_x
_atom_site_fract_y
_atom_site_fract_z
H             0.146735     -0.250000      0.224756
Fe            0.353175     -0.083327     -0.025375
Fe           -0.146825     -0.083327     -0.224625
Fe           -0.353265     -0.250000      0.025244
H            -0.085221     -0.250000      0.049134
H            -0.414737     -0.083030     -0.201101
H             0.085263     -0.083030     -0.048899
H             0.414779     -0.250000      0.200866
O            -0.196748     -0.250000     -0.095276
O            -0.303195     -0.083277      0.154599
O             0.196805     -0.083277      0.095401
O             0.303252     -0.250000     -0.154724
O            -0.053396     -0.250000      0.148894
O            -0.446594     -0.082953     -0.101355
O             0.053406     -0.082954     -0.148645
O             0.446604     -0.250000      0.101106
Fe            0.146825      0.083327      0.224625
Fe            0.353265      0.250000     -0.025244
Fe           -0.146735      0.250000     -0.224756
Fe           -0.353175      0.083327      0.025375
H            -0.085263      0.083030      0.048899
H            -0.414779      0.250000     -0.200866
H             0.085221      0.250000     -0.049134
H             0.414737      0.083030      0.201101
O            -0.196805      0.083277     -0.095401
O            -0.303252      0.250000      0.154724
O             0.196748      0.250000      0.095276
O             0.303195      0.083277     -0.154599
O            -0.053406      0.082954      0.148645
O            -0.446604      0.250000     -0.101106
O             0.053396      0.250000     -0.148894
O             0.446594      0.082953      0.101355
Fe            0.146825      0.416673      0.224625
Fe            0.353175     -0.416673     -0.025375
Fe           -0.146825     -0.416673     -0.224625
Fe           -0.353175      0.416673      0.025375
H            -0.085263      0.416970      0.048899
H            -0.414737     -0.416970     -0.201101
H             0.085263     -0.416970     -0.048899
H             0.414737      0.416970      0.201101
O            -0.196805      0.416723     -0.095401
O            -0.303195     -0.416723      0.154599
O             0.196805     -0.416723      0.095401
O             0.303195      0.416723     -0.154599
O            -0.053406      0.417047      0.148645
O            -0.446594     -0.417047     -0.101355
O             0.053406     -0.417047     -0.148645
O             0.446594      0.417046      0.101355
Fe            0.146735     -0.250000     -0.275244
Fe            0.353175     -0.083327      0.474625
Fe           -0.146825     -0.083327      0.275375
Fe           -0.353265     -0.250000     -0.474756
H            -0.085221     -0.250000     -0.450866
H            -0.414737     -0.083030      0.298899
H             0.085263     -0.083030      0.451101
H             0.414779     -0.250000     -0.299134
O            -0.196748     -0.250000      0.404724
O            -0.303195     -0.083277     -0.345401
O             0.196805     -0.083277     -0.404599
O             0.303252     -0.250000      0.345276
O            -0.053396     -0.250000     -0.351106
O            -0.446594     -0.082953      0.398645
O             0.053406     -0.082954      0.351355
O             0.446604     -0.250000     -0.398894
Fe            0.146825      0.083327     -0.275375
Fe            0.353265      0.250000      0.474756
Fe           -0.146735      0.250000      0.275244
Fe           -0.353175      0.083327     -0.474625
H            -0.085263      0.083030     -0.451101
H            -0.414779      0.250000      0.299134
H             0.085221      0.250000      0.450866
H             0.414737      0.083030     -0.298899
O            -0.196805      0.083277      0.404599
O            -0.303252      0.250000     -0.345276
O             0.196748      0.250000     -0.404724
O             0.303195      0.083277      0.345401
O            -0.053406      0.082954     -0.351355
O            -0.446604      0.250000      0.398894
O             0.053396      0.250000      0.351106
O             0.446594      0.082953     -0.398645
Ni            0.146825      0.416673     -0.275375
Fe            0.353175     -0.416673      0.474625
Fe           -0.146825     -0.416673      0.275375
Fe           -0.353175      0.416673     -0.474625
H            -0.085263      0.416970     -0.451101
H            -0.414737     -0.416970      0.298899
H             0.085263     -0.416970      0.451101
H             0.414737      0.416970     -0.298899
O            -0.196805      0.416723      0.404599
O            -0.303195     -0.416723     -0.345401
O             0.196805     -0.416723     -0.404599
O             0.303195      0.416723      0.345401
O            -0.053406      0.417047     -0.351355
O            -0.446594     -0.417047      0.398645
O             0.053406     -0.417047      0.351355
O             0.446594      0.417046     -0.398645
H             0.200391      0.365788     -0.048061
H             0.046735     -0.250000      0.214756
H             0.146735     -0.150000      0.234756
data_nwchem_pspw

_audit_creation_date   Mon Feb 27 16:24:09 2023
_audit_creation_method    generated by PSPW module of NWChem


_cell_length_a            10.0667
_cell_length_b             9.1552
_cell_length_c             9.2041
_cell_angle_alpha         90.0000
_cell_angle_beta          90.0000
_cell_angle_gamma         90.0000

_symmetry_space_group_name_H-M     P1  

loop_
_atom_site_type_symbol
_atom_site_fract_x
_atom_site_fract_y
_atom_site_fract_z
H             0.146735     -0.250000      0.224756
Fe            0.353175     -0.083327     -0.025375
Fe           -0.146825     -0.083327     -0.224625
Fe           -0.353265     -0.250000      0.025244
H            -0.085221     -0.250000      0.049134
H            -0.414737     -0.083030     -0.201101
H             0.085263     -0.083030     -0.048899
H             0.414779     -0.250000      0.200866
O            -0.196748     -0.250000     -0.095276
O            -0.303195     -0.083277      0.154599
O             0.196805     -0.083277      0.095401
O             0.303252     -0.250000     -0.154724
O            -0.053396     -0.250000      0.148894
O            -0.446594     -0.082953     -0.101355
O             0.053406     -0.082954     -0.148645
O             0.446604     -0.250000      0.101106
Fe            0.146825      0.083327      0.224625
Fe            0.353265      0.250000     -0.025244
Fe           -0.146735      0.250000     -0.224756
Fe           -0.353175      0.083327      0.025375
H            -0.085263      0.083030      0.048899
H            -0.414779      0.250000     -0.200866
H             0.085221      0.250000     -0.049134
H             0.414737      0.083030      0.201101
O            -0.196805      0.083277     -0.095401
O            -0.303252      0.250000      0.154724
O             0.196748      0.250000      0.095276
O             0.303195      0.083277     -0.154599
O            -0.053406      0.082954      0.148645
O            -0.446604      0.250000     -0.101106
O             0.053396      0.250000     -0.148894
O             0.446594      0.082953      0.101355
Fe            0.146825      0.416673      0.224625
Fe            0.353175     -0.416673     -0.025375
Fe           -0.146825     -0.416673     -0.224625
Fe           -0.353175      0.416673      0.025375
H            -0.085263      0.416970      0.048899
H            -0.414737     -0.416970     -0.201101
H             0.085263     -0.416970     -0.048899
H             0.414737      0.416970      0.201101
O            -0.196805      0.416723     -0.095401
O            -0.303195     -0.416723      0.154599
O             0.196805     -0.416723      0.095401
O             0.303195      0.416723     -0.154599
O            -0.053406      0.417047      0.148645
O            -0.446594     -0.417047     -0.101355
O             0.053406     -0.417047     -0.148645
O             0.446594      0.417046      0.101355
Fe            0.146735     -0.250000     -0.275244
Fe            0.353175     -0.083327      0.474625
Fe           -0.146825     -0.083327      0.275375
Fe           -0.353265     -0.250000     -0.474756
H            -0.085221     -0.250000     -0.450866
H            -0.414737     -0.083030      0.298899
H             0.085263     -0.083030      0.451101
H             0.414779     -0.250000     -0.299134
O            -0.196748     -0.250000      0.404724
O            -0.303195     -0.083277     -0.345401
O             0.196805     -0.083277     -0.404599
O             0.303252     -0.250000      0.345276
O            -0.053396     -0.250000     -0.351106
O            -0.446594     -0.082953      0.398645
O             0.053406     -0.082954      0.351355
O             0.446604     -0.250000     -0.398894
Fe            0.146825      0.083327     -0.275375
Fe            0.353265      0.250000      0.474756
Fe           -0.146735      0.250000      0.275244
Fe           -0.353175      0.083327     -0.474625
H            -0.085263      0.083030     -0.451101
H            -0.414779      0.250000      0.299134
H             0.085221      0.250000      0.450866
H             0.414737      0.083030     -0.298899
O            -0.196805      0.083277      0.404599
O            -0.303252      0.250000     -0.345276
O             0.196748      0.250000     -0.404724
O             0.303195      0.083277      0.345401
O            -0.053406      0.082954     -0.351355
O            -0.446604      0.250000      0.398894
O             0.053396      0.250000      0.351106
O             0.446594      0.082953     -0.398645
Ni            0.146825      0.416673     -0.275375
Fe            0.353175     -0.416673      0.474625
Fe           -0.146825     -0.416673      0.275375
Fe           -0.353175      0.416673     -0.474625
H            -0.085263      0.416970     -0.451101
H            -0.414737     -0.416970      0.298899
H             0.085263     -0.416970      0.451101
H             0.414737      0.416970     -0.298899
O            -0.196805      0.416723      0.404599
O            -0.303195     -0.416723     -0.345401
O             0.196805     -0.416723     -0.404599
O             0.303195      0.416723      0.345401
O            -0.053406      0.417047     -0.351355
O            -0.446594     -0.417047      0.398645
O             0.053406     -0.417047      0.351355
O             0.446594      0.417046     -0.398645
H             0.200391      0.365788     -0.048061
H             0.046735     -0.250000      0.214756
H             0.146735     -0.150000      0.234756
data_nwchem_pspw

_audit_creation_date   Mon Feb 27 16:26:06 2023
_audit_creation_method    generated by PSPW module of NWChem


_cell_length_a            10.0667
_cell_length_b             9.1552
_cell_length_c             9.2041
_cell_angle_alpha         90.0000
_cell_angle_beta          90.0000
_cell_angle_gamma         90.0000

_symmetry_space_group_name_H-M     P1  

loop_
_atom_site_type_symbol
_atom_site_fract_x
_atom_site_fract_y
_atom_site_fract_z
H             0.146735     -0.250000      0.224756
Fe            0.353175     -0.083327     -0.025375
Fe           -0.146825     -0.083327     -0.224625
Fe           -0.353265     -0.250000      0.025244
H            -0.085221     -0.250000      0.049134
H            -0.414737     -0.083030     -0.201101
H             0.085263     -0.083030     -0.048899
H             0.414779     -0.250000      0.200866
O            -0.196748     -0.250000     -0.095276
O            -0.303195     -0.083277      0.154599
O             0.196805     -0.083277      0.095401
O             0.303252     -0.250000     -0.154724
O            -0.053396     -0.250000      0.148894
O            -0.446594     -0.082953     -0.101355
O             0.053406     -0.082954     -0.148645
O             0.446604     -0.250000      0.101106
Fe            0.146825      0.083327      0.224625
Fe            0.353265      0.250000     -0.025244
Fe           -0.146735      0.250000     -0.224756
Fe           -0.353175      0.083327      0.025375
H            -0.085263      0.083030      0.048899
H            -0.414779      0.250000     -0.200866
H             0.085221      0.250000     -0.049134
H             0.414737      0.083030      0.201101
O            -0.196805      0.083277     -0.095401
O            -0.303252      0.250000      0.154724
O             0.196748      0.250000      0.095276
O             0.303195      0.083277     -0.154599
O            -0.053406      0.082954      0.148645
O            -0.446604      0.250000     -0.101106
O             0.053396      0.250000     -0.148894
O             0.446594      0.082953      0.101355
Fe            0.146825      0.416673      0.224625
Fe            0.353175     -0.416673     -0.025375
Fe           -0.146825     -0.416673     -0.224625
Fe           -0.353175      0.416673      0.025375
H            -0.085263      0.416970      0.048899
H            -0.414737     -0.416970     -0.201101
H             0.085263     -0.416970     -0.048899
H             0.414737      0.416970      0.201101
O            -0.196805      0.416723     -0.095401
O            -0.303195     -0.416723      0.154599
O             0.196805     -0.416723      0.095401
O             0.303195      0.416723     -0.154599
O            -0.053406      0.417047      0.148645
O            -0.446594     -0.417047     -0.101355
O             0.053406     -0.417047     -0.148645
O             0.446594      0.417046      0.101355
Fe            0.146735     -0.250000     -0.275244
Fe            0.353175     -0.083327      0.474625
Fe           -0.146825     -0.083327      0.275375
Fe           -0.353265     -0.250000     -0.474756
H            -0.085221     -0.250000     -0.450866
H            -0.414737     -0.083030      0.298899
H             0.085263     -0.083030      0.451101
H             0.414779     -0.250000     -0.299134
O            -0.196748     -0.250000      0.404724
O            -0.303195     -0.083277     -0.345401
O             0.196805     -0.083277     -0.404599
O             0.303252     -0.250000      0.345276
O            -0.053396     -0.250000     -0.351106
O            -0.446594     -0.082953      0.398645
O             0.053406     -0.082954      0.351355
O             0.446604     -0.250000     -0.398894
Fe            0.146825      0.083327     -0.275375
Fe            0.353265      0.250000      0.474756
Fe           -0.146735      0.250000      0.275244
Fe           -0.353175      0.083327     -0.474625
H            -0.085263      0.083030     -0.451101
H            -0.414779      0.250000      0.299134
H             0.085221      0.250000      0.450866
H             0.414737      0.083030     -0.298899
O            -0.196805      0.083277      0.404599
O            -0.303252      0.250000     -0.345276
O             0.196748      0.250000     -0.404724
O             0.303195      0.083277      0.345401
O            -0.053406      0.082954     -0.351355
O            -0.446604      0.250000      0.398894
O             0.053396      0.250000      0.351106
O             0.446594      0.082953     -0.398645
Ni            0.146825      0.416673     -0.275375
Fe            0.353175     -0.416673      0.474625
Fe           -0.146825     -0.416673      0.275375
Fe           -0.353175      0.416673     -0.474625
H            -0.085263      0.416970     -0.451101
H            -0.414737     -0.416970      0.298899
H             0.085263     -0.416970      0.451101
H             0.414737      0.416970     -0.298899
O            -0.196805      0.416723      0.404599
O            -0.303195     -0.416723     -0.345401
O             0.196805     -0.416723     -0.404599
O             0.303195      0.416723      0.345401
O            -0.053406      0.417047     -0.351355
O            -0.446594     -0.417047      0.398645
O             0.053406     -0.417047      0.351355
O             0.446594      0.417046     -0.398645
H             0.200391      0.365788     -0.048061
H             0.046735     -0.250000      0.214756
H             0.146735     -0.150000      0.234756
data_nwchem_pspw

_audit_creation_date   Mon Feb 27 16:27:36 2023
_audit_creation_method    generated by PSPW module of NWChem


_cell_length_a            10.0667
_cell_length_b             9.1552
_cell_length_c             9.2041
_cell_angle_alpha         90.0000
_cell_angle_beta          90.0000
_cell_angle_gamma         90.0000

_symmetry_space_group_name_H-M     P1  

loop_
_atom_site_type_symbol
_atom_site_fract_x
_atom_site_fract_y
_atom_site_fract_z
H             0.146735     -0.250000      0.224756
Fe            0.353175     -0.083327     -0.025375
Fe           -0.146825     -0.083327     -0.224625
Fe           -0.353265     -0.250000      0.025244
H            -0.085221     -0.250000      0.049134
H            -0.414737     -0.083030     -0.201101
H             0.085263     -0.083030     -0.048899
H             0.414779     -0.250000      0.200866
O            -0.196748     -0.250000     -0.095276
O            -0.303195     -0.083277      0.154599
O             0.196805     -0.083277      0.095401
O             0.303252     -0.250000     -0.154724
O            -0.053396     -0.250000      0.148894
O            -0.446594     -0.082953     -0.101355
O             0.053406     -0.082954     -0.148645
O             0.446604     -0.250000      0.101106
Fe            0.146825      0.083327      0.224625
Fe            0.353265      0.250000     -0.025244
Fe           -0.146735      0.250000     -0.224756
Fe           -0.353175      0.083327      0.025375
H            -0.085263      0.083030      0.048899
H            -0.414779      0.250000     -0.200866
H             0.085221      0.250000     -0.049134
H             0.414737      0.083030      0.201101
O            -0.196805      0.083277     -0.095401
O            -0.303252      0.250000      0.154724
O             0.196748      0.250000      0.095276
O             0.303195      0.083277     -0.154599
O            -0.053406      0.082954      0.148645
O            -0.446604      0.250000     -0.101106
O             0.053396      0.250000     -0.148894
O             0.446594      0.082953      0.101355
Fe            0.146825      0.416673      0.224625
Fe            0.353175     -0.416673     -0.025375
Fe           -0.146825     -0.416673     -0.224625
Fe           -0.353175      0.416673      0.025375
H            -0.085263      0.416970      0.048899
H            -0.414737     -0.416970     -0.201101
H             0.085263     -0.416970     -0.048899
H             0.414737      0.416970      0.201101
O            -0.196805      0.416723     -0.095401
O            -0.303195     -0.416723      0.154599
O             0.196805     -0.416723      0.095401
O             0.303195      0.416723     -0.154599
O            -0.053406      0.417047      0.148645
O            -0.446594     -0.417047     -0.101355
O             0.053406     -0.417047     -0.148645
O             0.446594      0.417046      0.101355
Fe            0.146735     -0.250000     -0.275244
Fe            0.353175     -0.083327      0.474625
Fe           -0.146825     -0.083327      0.275375
Fe           -0.353265     -0.250000     -0.474756
H            -0.085221     -0.250000     -0.450866
H            -0.414737     -0.083030      0.298899
H             0.085263     -0.083030      0.451101
H             0.414779     -0.250000     -0.299134
O            -0.196748     -0.250000      0.404724
O            -0.303195     -0.083277     -0.345401
O             0.196805     -0.083277     -0.404599
O             0.303252     -0.250000      0.345276
O            -0.053396     -0.250000     -0.351106
O            -0.446594     -0.082953      0.398645
O             0.053406     -0.082954      0.351355
O             0.446604     -0.250000     -0.398894
Fe            0.146825      0.083327     -0.275375
Fe            0.353265      0.250000      0.474756
Fe           -0.146735      0.250000      0.275244
Fe           -0.353175      0.083327     -0.474625
H            -0.085263      0.083030     -0.451101
H            -0.414779      0.250000      0.299134
H             0.085221      0.250000      0.450866
H             0.414737      0.083030     -0.298899
O            -0.196805      0.083277      0.404599
O            -0.303252      0.250000     -0.345276
O             0.196748      0.250000     -0.404724
O             0.303195      0.083277      0.345401
O            -0.053406      0.082954     -0.351355
O            -0.446604      0.250000      0.398894
O             0.053396      0.250000      0.351106
O             0.446594      0.082953     -0.398645
Ni            0.146825      0.416673     -0.275375
Fe            0.353175     -0.416673      0.474625
Fe           -0.146825     -0.416673      0.275375
Fe           -0.353175      0.416673     -0.474625
H            -0.085263      0.416970     -0.451101
H            -0.414737     -0.416970      0.298899
H             0.085263     -0.416970      0.451101
H             0.414737      0.416970     -0.298899
O            -0.196805      0.416723      0.404599
O            -0.303195     -0.416723     -0.345401
O             0.196805     -0.416723     -0.404599
O             0.303195      0.416723      0.345401
O            -0.053406      0.417047     -0.351355
O            -0.446594     -0.417047      0.398645
O             0.053406     -0.417047      0.351355
O             0.446594      0.417046     -0.398645
H             0.200391      0.365788     -0.048061
H             0.046735     -0.250000      0.214756
H             0.146735     -0.150000      0.234756
data_nwchem_pspw

_audit_creation_date   Mon Feb 27 17:14:37 2023
_audit_creation_method    generated by PSPW module of NWChem


_cell_length_a            10.0667
_cell_length_b             9.1552
_cell_length_c             9.2041
_cell_angle_alpha         90.0000
_cell_angle_beta          90.0000
_cell_angle_gamma         90.0000

_symmetry_space_group_name_H-M     P1  

loop_
_atom_site_type_symbol
_atom_site_fract_x
_atom_site_fract_y
_atom_site_fract_z
H             0.146735     -0.250000      0.224756
Fe            0.353175     -0.083327     -0.025375
Fe           -0.146825     -0.083327     -0.224625
Fe           -0.353265     -0.250000      0.025244
H            -0.085221     -0.250000      0.049134
H            -0.414737     -0.083030     -0.201101
H             0.085263     -0.083030     -0.048899
H             0.414779     -0.250000      0.200866
O            -0.196748     -0.250000     -0.095276
O            -0.303195     -0.083277      0.154599
O             0.196805     -0.083277      0.095401
O             0.303252     -0.250000     -0.154724
O            -0.053396     -0.250000      0.148894
O            -0.446594     -0.082953     -0.101355
O             0.053406     -0.082954     -0.148645
O             0.446604     -0.250000      0.101106
Fe            0.146825      0.083327      0.224625
Fe            0.353265      0.250000     -0.025244
Fe           -0.146735      0.250000     -0.224756
Fe           -0.353175      0.083327      0.025375
H            -0.085263      0.083030      0.048899
H            -0.414779      0.250000     -0.200866
H             0.085221      0.250000     -0.049134
H             0.414737      0.083030      0.201101
O            -0.196805      0.083277     -0.095401
O            -0.303252      0.250000      0.154724
O             0.196748      0.250000      0.095276
O             0.303195      0.083277     -0.154599
O            -0.053406      0.082954      0.148645
O            -0.446604      0.250000     -0.101106
O             0.053396      0.250000     -0.148894
O             0.446594      0.082953      0.101355
Fe            0.146825      0.416673      0.224625
Fe            0.353175     -0.416673     -0.025375
Fe           -0.146825     -0.416673     -0.224625
Fe           -0.353175      0.416673      0.025375
H            -0.085263      0.416970      0.048899
H            -0.414737     -0.416970     -0.201101
H             0.085263     -0.416970     -0.048899
H             0.414737      0.416970      0.201101
O            -0.196805      0.416723     -0.095401
O            -0.303195     -0.416723      0.154599
O             0.196805     -0.416723      0.095401
O             0.303195      0.416723     -0.154599
O            -0.053406      0.417047      0.148645
O            -0.446594     -0.417047     -0.101355
O             0.053406     -0.417047     -0.148645
O             0.446594      0.417046      0.101355
Fe            0.146735     -0.250000     -0.275244
Fe            0.353175     -0.083327      0.474625
Fe           -0.146825     -0.083327      0.275375
Fe           -0.353265     -0.250000     -0.474756
H            -0.085221     -0.250000     -0.450866
H            -0.414737     -0.083030      0.298899
H             0.085263     -0.083030      0.451101
H             0.414779     -0.250000     -0.299134
O            -0.196748     -0.250000      0.404724
O            -0.303195     -0.083277     -0.345401
O             0.196805     -0.083277     -0.404599
O             0.303252     -0.250000      0.345276
O            -0.053396     -0.250000     -0.351106
O            -0.446594     -0.082953      0.398645
O             0.053406     -0.082954      0.351355
O             0.446604     -0.250000     -0.398894
Fe            0.146825      0.083327     -0.275375
Fe            0.353265      0.250000      0.474756
Fe           -0.146735      0.250000      0.275244
Fe           -0.353175      0.083327     -0.474625
H            -0.085263      0.083030     -0.451101
H            -0.414779      0.250000      0.299134
H             0.085221      0.250000      0.450866
H             0.414737      0.083030     -0.298899
O            -0.196805      0.083277      0.404599
O            -0.303252      0.250000     -0.345276
O             0.196748      0.250000     -0.404724
O             0.303195      0.083277      0.345401
O            -0.053406      0.082954     -0.351355
O            -0.446604      0.250000      0.398894
O             0.053396      0.250000      0.351106
O             0.446594      0.082953     -0.398645
Ni            0.146825      0.416673     -0.275375
Fe            0.353175     -0.416673      0.474625
Fe           -0.146825     -0.416673      0.275375
Fe           -0.353175      0.416673     -0.474625
H            -0.085263      0.416970     -0.451101
H            -0.414737     -0.416970      0.298899
H             0.085263     -0.416970      0.451101
H             0.414737      0.416970     -0.298899
O            -0.196805      0.416723      0.404599
O            -0.303195     -0.416723     -0.345401
O             0.196805     -0.416723     -0.404599
O             0.303195      0.416723      0.345401
O            -0.053406      0.417047     -0.351355
O            -0.446594     -0.417047      0.398645
O             0.053406     -0.417047      0.351355
O             0.446594      0.417046     -0.398645
H             0.200391      0.365788     -0.048061
H             0.046735     -0.250000      0.214756
H             0.146735     -0.150000      0.234756
data_nwchem_pspw

_audit_creation_date   Mon Feb 27 19:29:10 2023
_audit_creation_method    generated by PSPW module of NWChem


_cell_length_a            10.0667
_cell_length_b             9.1552
_cell_length_c             9.2041
_cell_angle_alpha         90.0000
_cell_angle_beta          90.0000
_cell_angle_gamma         90.0000

_symmetry_space_group_name_H-M     P1  

loop_
_atom_site_type_symbol
_atom_site_fract_x
_atom_site_fract_y
_atom_site_fract_z
H             0.217687     -0.258295      0.350650
Fe            0.365142     -0.077002     -0.037850
Fe           -0.136483     -0.086298     -0.231301
Fe           -0.358030     -0.258866      0.041939
H            -0.124969     -0.230852     -0.015423
H            -0.409193     -0.094761     -0.195292
H             0.102608     -0.074216     -0.069860
H             0.388325     -0.269588      0.208948
O            -0.190854     -0.237880     -0.098353
O            -0.310044     -0.077982      0.161890
O             0.197131     -0.076072      0.082818
O             0.302043     -0.248938     -0.162973
O            -0.067558     -0.250872      0.149227
O            -0.448002     -0.091579     -0.096828
O             0.056661     -0.086821     -0.162490
O             0.428610     -0.254761      0.106226
Fe            0.139485      0.085403      0.228336
Fe            0.351036      0.252836     -0.027524
Fe           -0.143249      0.250761     -0.211002
Fe           -0.350119      0.086747      0.017937
H            -0.098546      0.076336      0.065584
H            -0.410460      0.239148     -0.208931
H             0.094229      0.271590     -0.055079
H             0.433365      0.077401      0.194294
O            -0.176955      0.080079     -0.088003
O            -0.308821      0.243000      0.158939
O             0.183255      0.250604      0.086945
O             0.309783      0.097570     -0.161563
O            -0.058511      0.081158      0.157935
O            -0.452086      0.242469     -0.111089
O             0.070459      0.260375     -0.164879
O             0.446974      0.078587      0.090441
Fe            0.137599      0.421482      0.236862
Fe            0.371027     -0.406647     -0.045750
Fe           -0.148598     -0.419379     -0.237000
Fe           -0.359033      0.415750      0.026795
H            -0.089750      0.401992      0.060948
H            -0.403104     -0.431568     -0.202962
H             0.069701     -0.393558     -0.051559
H             0.388330      0.399641      0.198683
O            -0.186362      0.416605     -0.082309
O            -0.298740     -0.423096      0.159857
O             0.199698     -0.418508      0.083070
O             0.296221      0.432313     -0.160367
O            -0.053705      0.400335      0.159845
O            -0.442712     -0.416165     -0.103019
O             0.047403     -0.406484     -0.155607
O             0.432546      0.405747      0.103397
Fe            0.143790     -0.249733     -0.283175
Fe            0.361402     -0.073295      0.463767
Fe           -0.144511     -0.095077      0.281162
Fe           -0.356039     -0.252768     -0.466012
H            -0.098209     -0.252419     -0.456688
H            -0.414236     -0.086309      0.309921
H             0.087657     -0.102251      0.438446
H             0.429078     -0.245060     -0.292051
O            -0.190117     -0.262565      0.408709
O            -0.315119     -0.079770     -0.332984
O             0.211519     -0.084328     -0.402926
O             0.310247     -0.263531      0.337383
O            -0.049178     -0.254530     -0.365121
O            -0.446838     -0.089345      0.409821
O             0.062879     -0.082821      0.338269
O             0.451457     -0.250247     -0.392560
Fe            0.147783      0.101613     -0.287301
Fe            0.355253      0.253275      0.455759
Fe           -0.157388      0.239780      0.286730
Fe           -0.359108      0.081465     -0.468085
H            -0.089696      0.090528     -0.447127
H            -0.409978      0.249499      0.285607
H             0.082843      0.237484      0.465850
H             0.420663      0.086836     -0.305098
O            -0.203846      0.068091      0.412887
O            -0.303755      0.250621     -0.326617
O             0.189812      0.256292     -0.417087
O             0.316289      0.083546      0.335164
O            -0.049350      0.085332     -0.353781
O            -0.440055      0.246404      0.387335
O             0.045938      0.238303      0.361044
O             0.449451      0.098695     -0.406051
Ni            0.138853      0.428397     -0.267115
Fe            0.361868     -0.416304      0.487967
Fe           -0.146668     -0.430211      0.280046
Fe           -0.357999      0.409842     -0.460139
H            -0.072178      0.420060     -0.447049
H            -0.440886     -0.408720      0.306260
H             0.083596     -0.439104      0.458328
H             0.404999      0.398060     -0.295377
O            -0.193616      0.411327      0.410240
O            -0.314826     -0.428183     -0.334894
O             0.186849     -0.424948     -0.412454
O             0.302468      0.417596      0.337302
O            -0.045148      0.433725     -0.345805
O            -0.456094     -0.404140      0.407774
O             0.058634     -0.431757      0.358741
O             0.439021      0.418547     -0.397084
H             0.171023     -0.490108      0.016900
H             0.027234     -0.231847      0.158445
H             0.187203     -0.181178      0.104015
data_nwchem_pspw

_audit_creation_date   Mon Feb 27 22:31:59 2023
_audit_creation_method    generated by PSPW module of NWChem


_cell_length_a            10.0667
_cell_length_b             9.1552
_cell_length_c             9.2041
_cell_angle_alpha         90.0000
_cell_angle_beta          90.0000
_cell_angle_gamma         90.0000

_symmetry_space_group_name_H-M     P1  

loop_
_atom_site_type_symbol
_atom_site_fract_x
_atom_site_fract_y
_atom_site_fract_z
H             0.182200     -0.212024      0.344006
Fe            0.365695     -0.073687     -0.029089
Fe           -0.128267     -0.076029     -0.224870
Fe           -0.358154     -0.254377      0.022845
H            -0.126923     -0.214862      0.005627
H            -0.399580     -0.101112     -0.198962
H             0.087796     -0.108861     -0.040914
H             0.404011     -0.238840      0.212284
O            -0.186811     -0.231842     -0.087385
O            -0.309264     -0.082391      0.148691
O             0.191864     -0.089711      0.097296
O             0.322358     -0.244621     -0.150793
O            -0.055535     -0.252411      0.134656
O            -0.437102     -0.098914     -0.098362
O             0.053188     -0.098013     -0.138991
O             0.438630     -0.230229      0.111993
Fe            0.137201      0.081750      0.230820
Fe            0.345209      0.253551     -0.010448
Fe           -0.144661      0.252890     -0.234834
Fe           -0.358600      0.084141      0.024057
H            -0.106395      0.078685      0.050629
H            -0.430498      0.254427     -0.209526
H             0.090175      0.246744     -0.063368
H             0.418984      0.111268      0.201089
O            -0.186148      0.083791     -0.081001
O            -0.307176      0.237568      0.152363
O             0.178374      0.255991      0.090644
O             0.315445      0.101608     -0.158037
O            -0.053070      0.078001      0.155117
O            -0.451230      0.251586     -0.103694
O             0.066992      0.248914     -0.165507
O             0.444933      0.091477      0.102815
Fe            0.128930      0.414318      0.237775
Fe            0.357777     -0.419320     -0.031441
Fe           -0.130985     -0.429269     -0.235347
Fe           -0.346659      0.413557      0.029112
H            -0.077044      0.431564      0.051623
H            -0.401070     -0.444744     -0.199379
H             0.073812     -0.403419     -0.049326
H             0.409987      0.402251      0.214652
O            -0.184416      0.420557     -0.088673
O            -0.312520     -0.415066      0.164834
O             0.198783     -0.407653      0.106340
O             0.304576      0.424934     -0.156364
O            -0.060898      0.429706      0.157369
O            -0.438111     -0.427956     -0.099150
O             0.063957     -0.417745     -0.151558
O             0.436789      0.413993      0.112682
Fe            0.153191     -0.250355     -0.281134
Fe            0.359029     -0.084618      0.462341
Fe           -0.141870     -0.084811      0.276701
Fe           -0.353761     -0.246374     -0.461444
H            -0.076280     -0.231604     -0.452885
H            -0.409759     -0.087603      0.287632
H             0.064093     -0.076206      0.462925
H             0.422111     -0.258595     -0.300002
O            -0.209921     -0.242438      0.405946
O            -0.299742     -0.078377     -0.344128
O             0.210673     -0.082141     -0.397419
O             0.276839     -0.249348      0.346061
O            -0.044932     -0.254418     -0.360048
O            -0.442042     -0.078908      0.392415
O             0.058441     -0.075704      0.359425
O             0.445576     -0.257353     -0.402983
Fe            0.147463      0.088267     -0.280291
Fe            0.355590      0.248836      0.467407
Fe           -0.153619      0.239649      0.266703
Fe           -0.358450      0.082973     -0.481752
H            -0.084767      0.072278     -0.455189
H            -0.412682      0.255014      0.280664
H             0.094585      0.265440      0.453696
H             0.416835      0.078591     -0.300985
O            -0.199108      0.073972      0.412424
O            -0.308661      0.247526     -0.340121
O             0.188652      0.265758     -0.414529
O             0.295506      0.077883      0.344998
O            -0.055009      0.079382     -0.355619
O            -0.449159      0.252817      0.382663
O             0.047523      0.248810      0.359098
O             0.438954      0.082654     -0.407617
Ni            0.145273      0.411720     -0.266131
Fe            0.354150     -0.417295      0.475513
Fe           -0.146850     -0.416753      0.278888
Fe           -0.355519      0.411931     -0.467071
H            -0.081812      0.408265     -0.468817
H            -0.429876     -0.434446      0.300123
H             0.058229     -0.399655      0.459273
H             0.396358      0.415462     -0.301825
O            -0.209319      0.415245      0.394999
O            -0.305710     -0.424142     -0.342802
O             0.191627     -0.417331     -0.418036
O             0.293851      0.401275      0.346555
O            -0.053297      0.419122     -0.370466
O            -0.455456     -0.418130      0.402736
O             0.038329     -0.424892      0.358082
O             0.441156      0.422453     -0.396585
H             0.251545     -0.365006      0.180269
H             0.029415     -0.209085      0.117721
H             0.224395     -0.175535      0.147317
data_nwchem_pspw

_audit_creation_date   Tue Feb 28 02:27:54 2023
_audit_creation_method    generated by PSPW module of NWChem


_cell_length_a            10.0667
_cell_length_b             9.1552
_cell_length_c             9.2041
_cell_angle_alpha         90.0000
_cell_angle_beta          90.0000
_cell_angle_gamma         90.0000

_symmetry_space_group_name_H-M     P1  

loop_
_atom_site_type_symbol
_atom_site_fract_x
_atom_site_fract_y
_atom_site_fract_z
H             0.177161     -0.290136      0.379441
Fe            0.363962     -0.080092     -0.036029
Fe           -0.148033     -0.073224     -0.235983
Fe           -0.353955     -0.257672      0.031761
H            -0.116878     -0.231783     -0.017548
H            -0.412398     -0.089239     -0.203213
H             0.073354     -0.097765     -0.042932
H             0.430367     -0.217237      0.191862
O            -0.189825     -0.236775     -0.094293
O            -0.303714     -0.077376      0.143067
O             0.196705     -0.097205      0.101672
O             0.308458     -0.247705     -0.148604
O            -0.079037     -0.241455      0.134471
O            -0.446080     -0.084299     -0.106752
O             0.064180     -0.075790     -0.143941
O             0.456377     -0.253230      0.100150
Fe            0.141141      0.078806      0.231216
Fe            0.360186      0.239661     -0.022506
Fe           -0.139668      0.273518     -0.228264
Fe           -0.347811      0.087025      0.024144
H            -0.082464      0.102082      0.064036
H            -0.421688      0.252025     -0.196119
H             0.081796      0.253425     -0.057585
H             0.399611      0.059689      0.211872
O            -0.197856      0.089807     -0.102351
O            -0.317752      0.261568      0.156108
O             0.192219      0.242108      0.094750
O             0.307211      0.079775     -0.153131
O            -0.049443      0.080985      0.161159
O            -0.447675      0.254064     -0.094280
O             0.061529      0.268054     -0.156452
O             0.442908      0.060883      0.110121
Fe            0.139132      0.407078      0.228151
Fe            0.354915     -0.425514     -0.044522
Fe           -0.134411     -0.429764     -0.222024
Fe           -0.371060      0.420384      0.028480
H            -0.106290      0.418942      0.042489
H            -0.411371     -0.415086     -0.194105
H             0.070413     -0.427890     -0.040141
H             0.385744      0.392625      0.191987
O            -0.188375      0.423012     -0.064043
O            -0.306028     -0.421419      0.153963
O             0.203913     -0.433888      0.087682
O             0.312328      0.414079     -0.175517
O            -0.054361      0.398151      0.142338
O            -0.446399     -0.415064     -0.092469
O             0.060949     -0.417651     -0.145423
O             0.420427      0.400055      0.090100
Fe            0.152452     -0.246748     -0.286767
Fe            0.355423     -0.084553      0.487086
Fe           -0.156581     -0.084137      0.277601
Fe           -0.353721     -0.248398     -0.464012
H            -0.085417     -0.263010     -0.458937
H            -0.405303     -0.080663      0.310897
H             0.089240     -0.073607      0.439871
H             0.424192     -0.271501     -0.297605
O            -0.200296     -0.247667      0.394454
O            -0.311549     -0.076610     -0.340485
O             0.204393     -0.074038     -0.402683
O             0.268635     -0.270668      0.369415
O            -0.048322     -0.238126     -0.359790
O            -0.451215     -0.094029      0.408250
O             0.060610     -0.086815      0.341222
O             0.441708     -0.259055     -0.399038
Fe            0.147353      0.096591     -0.279442
Fe            0.354224      0.241050      0.457155
Fe           -0.153952      0.256760      0.267524
Fe           -0.355949      0.088113     -0.464996
H            -0.078124      0.101797     -0.453875
H            -0.427910      0.269446      0.295442
H             0.080220      0.246104      0.448761
H             0.421053      0.084149     -0.297258
O            -0.201824      0.075554      0.409579
O            -0.309857      0.269237     -0.337882
O             0.192411      0.254818     -0.413959
O             0.297366      0.077494      0.349319
O            -0.051872      0.091830     -0.350686
O            -0.449227      0.252083      0.397051
O             0.040673      0.243748      0.351231
O             0.440296      0.085024     -0.399784
Ni            0.148709      0.423699     -0.279011
Fe            0.362828     -0.428723      0.481271
Fe           -0.136790     -0.420231      0.283560
Fe           -0.354530      0.426507     -0.468482
H            -0.085164      0.417954     -0.464682
H            -0.392693     -0.427801      0.304249
H             0.099451     -0.455989      0.452987
H             0.389829      0.414469     -0.301417
O            -0.198018      0.424372      0.412989
O            -0.307306     -0.412034     -0.342978
O             0.195986     -0.423318     -0.406752
O             0.310938      0.410560      0.346956
O            -0.046372      0.425503     -0.368092
O            -0.450826     -0.425104      0.399794
O             0.060841     -0.441298      0.354480
O             0.443245      0.404700     -0.399438
H             0.198085     -0.357706      0.152938
H             0.013277     -0.228521      0.150441
H             0.205715     -0.154452      0.187094
data_nwchem_pspw

_audit_creation_date   Tue Feb 28 05:29:55 2023
_audit_creation_method    generated by PSPW module of NWChem


_cell_length_a            10.0667
_cell_length_b             9.1552
_cell_length_c             9.2041
_cell_angle_alpha         90.0000
_cell_angle_beta          90.0000
_cell_angle_gamma         90.0000

_symmetry_space_group_name_H-M     P1  

loop_
_atom_site_type_symbol
_atom_site_fract_x
_atom_site_fract_y
_atom_site_fract_z
H             0.195349     -0.274051      0.356417
Fe            0.365296     -0.090470     -0.050771
Fe           -0.134813     -0.087366     -0.239712
Fe           -0.353745     -0.249002      0.034925
H            -0.121116     -0.263418     -0.020625
H            -0.403565     -0.069804     -0.206237
H             0.084045     -0.072147     -0.058920
H             0.410717     -0.222200      0.181130
O            -0.190643     -0.259660     -0.097360
O            -0.306739     -0.082072      0.165790
O             0.205908     -0.074640      0.088526
O             0.299655     -0.255036     -0.154284
O            -0.061944     -0.249306      0.148153
O            -0.443889     -0.084206     -0.104869
O             0.055481     -0.098785     -0.154811
O             0.451538     -0.242047      0.089219
Fe            0.145633      0.096171      0.235354
Fe            0.359988      0.243824     -0.022241
Fe           -0.145356      0.233758     -0.231571
Fe           -0.355523      0.086453      0.024679
H            -0.107872      0.090008      0.040314
H            -0.398850      0.248266     -0.194586
H             0.080279      0.258560     -0.066727
H             0.424349      0.082325      0.192790
O            -0.188897      0.078608     -0.090875
O            -0.310306      0.250002      0.166126
O             0.202740      0.249812      0.101391
O             0.319519      0.088372     -0.163492
O            -0.055540      0.101606      0.138770
O            -0.445116      0.251796     -0.102023
O             0.050034      0.246264     -0.162131
O             0.447588      0.074422      0.091031
Fe            0.140293      0.420611      0.222884
Fe            0.355162     -0.420018     -0.028998
Fe           -0.152379     -0.437120     -0.235652
Fe           -0.349673      0.413652      0.036707
H            -0.093193      0.399311      0.057670
H            -0.422338     -0.409613     -0.187015
H             0.094343     -0.428127     -0.056140
H             0.411568      0.435149      0.200950
O            -0.188516      0.407988     -0.090079
O            -0.312819     -0.408580      0.172640
O             0.197969     -0.407468      0.099764
O             0.295072      0.433111     -0.155797
O            -0.058722      0.421470      0.154187
O            -0.441145     -0.411442     -0.088838
O             0.049055     -0.427951     -0.148692
O             0.438767      0.413307      0.098935
Fe            0.140600     -0.268425     -0.265547
Fe            0.355902     -0.085763      0.474333
Fe           -0.133651     -0.068428      0.283094
Fe           -0.358627     -0.242890     -0.472178
H            -0.079466     -0.249934     -0.465673
H            -0.402053     -0.091610      0.302248
H             0.095658     -0.074438      0.448741
H             0.414677     -0.248920     -0.298247
O            -0.196467     -0.244550      0.420552
O            -0.310698     -0.080545     -0.340917
O             0.196206     -0.087343     -0.400012
O             0.287427     -0.258286      0.337883
O            -0.043348     -0.263998     -0.365817
O            -0.452301     -0.083996      0.396106
O             0.063675     -0.072439      0.346559
O             0.443389     -0.251756     -0.401075
Fe            0.154198      0.072532     -0.277890
Fe            0.356012      0.253759      0.467215
Fe           -0.144756      0.264500      0.281501
Fe           -0.359007      0.085143     -0.478075
H            -0.078493      0.091839     -0.452974
H            -0.406794      0.257689      0.293765
H             0.083726      0.265193      0.453852
H             0.408558      0.090252     -0.303116
O            -0.186212      0.096073      0.404019
O            -0.319890      0.244014     -0.340428
O             0.189850      0.243187     -0.412451
O             0.314478      0.082135      0.346831
O            -0.034249      0.074291     -0.359175
O            -0.445563      0.266563      0.391998
O             0.045079      0.260499      0.355058
O             0.438780      0.092666     -0.402680
Ni            0.139706      0.407291     -0.286203
Fe            0.350271     -0.416189      0.476167
Fe           -0.150109     -0.409375      0.289342
Fe           -0.358319      0.426187     -0.461996
H            -0.080209      0.398239     -0.466774
H            -0.405134     -0.414027      0.302930
H             0.070663     -0.439208      0.452455
H             0.399699      0.409443     -0.300903
O            -0.204367      0.423941      0.409591
O            -0.322845     -0.414056     -0.330379
O             0.193839     -0.423595     -0.393212
O             0.298712      0.423928      0.336319
O            -0.059403      0.396365     -0.365861
O            -0.447474     -0.407918      0.397834
O             0.046019     -0.415118      0.355774
O             0.440559      0.422568     -0.396694
H             0.233955     -0.356599      0.188536
H             0.029472     -0.255971      0.157041
H             0.168596     -0.144541      0.153878
data_nwchem_pspw

_audit_creation_date   Tue Feb 28 08:27:22 2023
_audit_creation_method    generated by PSPW module of NWChem


_cell_length_a            10.0667
_cell_length_b             9.1552
_cell_length_c             9.2041
_cell_angle_alpha         90.0000
_cell_angle_beta          90.0000
_cell_angle_gamma         90.0000

_symmetry_space_group_name_H-M     P1  

loop_
_atom_site_type_symbol
_atom_site_fract_x
_atom_site_fract_y
_atom_site_fract_z
H             0.204106     -0.216310      0.381003
Fe            0.361168     -0.081612     -0.029828
Fe           -0.140374     -0.073276     -0.225718
Fe           -0.360683     -0.249967      0.037656
H            -0.122893     -0.230084     -0.001106
H            -0.394585     -0.097764     -0.194940
H             0.098337     -0.101041     -0.056424
H             0.421447     -0.245419      0.208393
O            -0.195515     -0.238182     -0.079155
O            -0.317367     -0.088781      0.170624
O             0.202516     -0.098247      0.101413
O             0.316386     -0.248644     -0.170670
O            -0.067852     -0.249706      0.145856
O            -0.434935     -0.087325     -0.096314
O             0.047662     -0.072674     -0.141238
O             0.436964     -0.251434      0.106142
Fe            0.139429      0.071027      0.217279
Fe            0.348528      0.249903     -0.020008
Fe           -0.133213      0.270754     -0.230036
Fe           -0.357507      0.094696      0.019223
H            -0.053625      0.044534      0.042567
H            -0.410551      0.263183     -0.196251
H             0.086019      0.270028     -0.045322
H             0.425868      0.082940      0.208136
O            -0.198429      0.092298     -0.104143
O            -0.307536      0.240645      0.171973
O             0.183191      0.248166      0.090070
O             0.307139      0.079164     -0.142297
O            -0.050968      0.058627      0.145288
O            -0.438487      0.249460     -0.095777
O             0.053978      0.279529     -0.150553
O             0.445708      0.091040      0.103668
Fe            0.148014      0.409562      0.219939
Fe            0.370418     -0.421538     -0.051679
Fe           -0.146770     -0.421229     -0.230834
Fe           -0.349259      0.420062      0.036477
H            -0.096704      0.392725      0.037224
H            -0.396143     -0.439436     -0.208180
H             0.094875     -0.431078     -0.067689
H             0.419937      0.399911      0.215050
O            -0.194967      0.410976     -0.084924
O            -0.305994     -0.411297      0.164507
O             0.214794     -0.428671      0.082445
O             0.296438      0.419910     -0.159343
O            -0.058930      0.403436      0.144377
O            -0.438216     -0.429814     -0.100272
O             0.052241     -0.415007     -0.157599
O             0.450833      0.413473      0.110020
Fe            0.137320     -0.236795     -0.275099
Fe            0.356812     -0.084564      0.480703
Fe           -0.144669     -0.078367      0.276056
Fe           -0.357698     -0.266807     -0.475590
H            -0.079841     -0.249177     -0.449874
H            -0.414035     -0.088647      0.300934
H             0.071940     -0.061812      0.464899
H             0.398457     -0.271434     -0.302133
O            -0.194246     -0.255502      0.408907
O            -0.301101     -0.093470     -0.348320
O             0.197991     -0.060398     -0.391518
O             0.288659     -0.252292      0.356689
O            -0.056257     -0.228636     -0.349630
O            -0.450398     -0.083637      0.400816
O             0.058499     -0.088667      0.365388
O             0.434970     -0.246673     -0.403007
Fe            0.141082      0.093501     -0.260768
Fe            0.342268      0.250372      0.473249
Fe           -0.142990      0.244733      0.281685
Fe           -0.358078      0.076666     -0.462924
H            -0.100125      0.100612     -0.453068
H            -0.412152      0.231189      0.303708
H             0.076380      0.223760      0.449790
H             0.399088      0.089049     -0.303028
O            -0.194262      0.072928      0.409363
O            -0.293554      0.237033     -0.347705
O             0.188524      0.255941     -0.401997
O             0.306218      0.070291      0.333679
O            -0.051818      0.106152     -0.353906
O            -0.447457      0.252728      0.402030
O             0.057357      0.237339      0.346577
O             0.439677      0.086079     -0.398539
Ni            0.140655      0.417509     -0.280370
Fe            0.349920     -0.415447      0.475262
Fe           -0.134128     -0.418389      0.277209
Fe           -0.351125      0.401324     -0.490442
H            -0.084288      0.410542     -0.464892
H            -0.402254     -0.415913      0.297549
H             0.087361     -0.456026      0.451718
H             0.405300      0.438155     -0.312156
O            -0.195216      0.415875      0.400567
O            -0.314606     -0.420977     -0.349619
O             0.197663     -0.404842     -0.386501
O             0.304718      0.408374      0.331036
O            -0.053781      0.445088     -0.374842
O            -0.442734     -0.419772      0.386496
O             0.055548     -0.452548      0.353799
O             0.427428      0.419879     -0.416043
H             0.221300     -0.345731      0.143384
H             0.020085     -0.224075      0.161955
H             0.235881     -0.154933      0.183509
data_nwchem_pspw

_audit_creation_date   Tue Feb 28 11:27:03 2023
_audit_creation_method    generated by PSPW module of NWChem


_cell_length_a            10.0667
_cell_length_b             9.1552
_cell_length_c             9.2041
_cell_angle_alpha         90.0000
_cell_angle_beta          90.0000
_cell_angle_gamma         90.0000

_symmetry_space_group_name_H-M     P1  

loop_
_atom_site_type_symbol
_atom_site_fract_x
_atom_site_fract_y
_atom_site_fract_z
H             0.195115     -0.257170      0.382609
Fe            0.357683     -0.081934     -0.045747
Fe           -0.144992     -0.094221     -0.234244
Fe           -0.349837     -0.249444      0.041267
H            -0.116789     -0.254881     -0.011679
H            -0.412316     -0.092290     -0.197643
H             0.037704     -0.058021     -0.050843
H             0.445840     -0.239137      0.206181
O            -0.190114     -0.249278     -0.084766
O            -0.308817     -0.085469      0.166744
O             0.214232     -0.063630      0.099456
O             0.306170     -0.245920     -0.151997
O            -0.053555     -0.261917      0.149731
O            -0.446438     -0.102227     -0.095497
O             0.045884     -0.084960     -0.151063
O             0.447425     -0.257505      0.103780
Fe            0.147938      0.102839      0.227095
Fe            0.362680      0.238074     -0.030467
Fe           -0.158286      0.238698     -0.218548
Fe           -0.353742      0.076021      0.036093
H            -0.094752      0.085654      0.042330
H            -0.398014      0.210790     -0.208118
H             0.092369      0.262330     -0.048854
H             0.407698      0.047748      0.190548
O            -0.200616      0.065555     -0.098052
O            -0.310368      0.244606      0.159008
O             0.192499      0.264384      0.097644
O             0.295964      0.083016     -0.152125
O            -0.061025      0.090897      0.143616
O            -0.438719      0.210406     -0.104391
O             0.050803      0.241386     -0.143025
O             0.448136      0.080472      0.101489
Fe            0.155129      0.427570      0.221139
Fe            0.356822     -0.414612     -0.035646
Fe           -0.141179     -0.433565     -0.231917
Fe           -0.352218      0.405394      0.026943
H            -0.085483      0.406698      0.037891
H            -0.409379     -0.397206     -0.194873
H             0.083006     -0.416120     -0.055116
H             0.418206      0.385789      0.201633
O            -0.196493      0.406080     -0.099883
O            -0.301963     -0.426851      0.154880
O             0.202243     -0.378708      0.101179
O             0.297739      0.419329     -0.163887
O            -0.055451      0.412865      0.146047
O            -0.444678     -0.431006     -0.093808
O             0.053882     -0.419397     -0.157108
O             0.437577      0.402451      0.095730
Fe            0.140850     -0.246990     -0.292885
Fe            0.349086     -0.068909      0.477367
Fe           -0.122169     -0.082792      0.299153
Fe           -0.356073     -0.256096     -0.471222
H            -0.087347     -0.241905     -0.462488
H            -0.401354     -0.084632      0.308514
H             0.080805     -0.032874      0.462053
H             0.392056     -0.232322     -0.301603
O            -0.190188     -0.245716      0.414726
O            -0.314742     -0.083040     -0.350472
O             0.191722     -0.069008     -0.399770
O             0.285661     -0.242788      0.355424
O            -0.050412     -0.238550     -0.362894
O            -0.447944     -0.101278      0.402826
O             0.062210     -0.062853      0.365051
O             0.437632     -0.235408     -0.393890
Fe            0.131940      0.092976     -0.279443
Fe            0.351057      0.261720      0.473936
Fe           -0.151910      0.259832      0.278205
Fe           -0.364247      0.077609     -0.473396
H            -0.091045      0.100906     -0.455456
H            -0.442519      0.240157      0.289932
H             0.069157      0.241640      0.460930
H             0.397930      0.081523     -0.297691
O            -0.204326      0.081094      0.404676
O            -0.308543      0.242783     -0.359876
O             0.200840      0.257526     -0.397320
O             0.316468      0.083055      0.332829
O            -0.060382      0.081393     -0.362323
O            -0.452252      0.252174      0.393684
O             0.054027      0.252973      0.359684
O             0.438646      0.089034     -0.393308
Ni            0.131630      0.414905     -0.277496
Fe            0.365747     -0.413437      0.463947
Fe           -0.129161     -0.421150      0.284427
Fe           -0.361584      0.410981     -0.473408
H            -0.094693      0.399704     -0.457090
H            -0.415120     -0.394341      0.296523
H             0.093912     -0.435223      0.451314
H             0.393411      0.433327     -0.300555
O            -0.192806      0.419435      0.406353
O            -0.323182     -0.423059     -0.337437
O             0.202431     -0.415393     -0.406603
O             0.320129      0.416225      0.331274
O            -0.054700      0.403905     -0.362487
O            -0.449549     -0.399801      0.394145
O             0.066478     -0.421572      0.353177
O             0.443996      0.427145     -0.397512
H             0.243327     -0.326126      0.180544
H             0.040854     -0.268469      0.154929
H             0.236105     -0.128208      0.177409
data_nwchem_pspw

_audit_creation_date   Tue Feb 28 14:29:05 2023
_audit_creation_method    generated by PSPW module of NWChem


_cell_length_a            10.0667
_cell_length_b             9.1552
_cell_length_c             9.2041
_cell_angle_alpha         90.0000
_cell_angle_beta          90.0000
_cell_angle_gamma         90.0000

_symmetry_space_group_name_H-M     P1  

loop_
_atom_site_type_symbol
_atom_site_fract_x
_atom_site_fract_y
_atom_site_fract_z
H             0.212584     -0.303863      0.319377
Fe            0.349393     -0.078995     -0.028254
Fe           -0.145808     -0.075788     -0.213339
Fe           -0.367127     -0.256680      0.041844
H            -0.118081     -0.243914      0.003069
H            -0.422684     -0.088892     -0.204234
H             0.095821     -0.097530     -0.036190
H             0.405479     -0.279808      0.211198
O            -0.186094     -0.241229     -0.080634
O            -0.311612     -0.084534      0.157260
O             0.201764     -0.112332      0.120274
O             0.305302     -0.252102     -0.162756
O            -0.058644     -0.239952      0.145961
O            -0.456077     -0.079610     -0.100439
O             0.064910     -0.083169     -0.135097
O             0.441037     -0.259728      0.112524
Fe            0.146863      0.082008      0.221621
Fe            0.359890      0.252053     -0.022514
Fe           -0.138333      0.250727     -0.225385
Fe           -0.362516      0.081584      0.028943
H            -0.088075      0.085506      0.050715
H            -0.403189      0.260017     -0.209377
H             0.082705      0.281636     -0.060091
H             0.403086      0.084816      0.200330
O            -0.192524      0.090652     -0.085311
O            -0.306338      0.248711      0.167919
O             0.201364      0.254739      0.099193
O             0.293990      0.082266     -0.139598
O            -0.047596      0.095528      0.151136
O            -0.443870      0.246707     -0.111093
O             0.063941      0.252228     -0.162010
O             0.450411      0.092467      0.103471
Fe            0.141065      0.418613      0.234552
Fe            0.361921     -0.425032     -0.045043
Fe           -0.141458     -0.411600     -0.231598
Fe           -0.350724      0.406745      0.025076
H            -0.076351      0.429016      0.035447
H            -0.411404     -0.401780     -0.209437
H             0.067930     -0.440746     -0.050469
H             0.400743      0.416533      0.194723
O            -0.194662      0.418348     -0.089158
O            -0.312765     -0.424807      0.151650
O             0.213628     -0.424030      0.092127
O             0.284722      0.409700     -0.168112
O            -0.045838      0.427222      0.140867
O            -0.445941     -0.410884     -0.108565
O             0.053787     -0.430802     -0.147081
O             0.439050      0.412589      0.094915
Fe            0.133443     -0.254714     -0.277394
Fe            0.349786     -0.085607      0.469651
Fe           -0.144603     -0.071307      0.273086
Fe           -0.359946     -0.254645     -0.482748
H            -0.084899     -0.214918     -0.446843
H            -0.416151     -0.084721      0.287834
H             0.068740     -0.069148      0.451501
H             0.399482     -0.248154     -0.311903
O            -0.198791     -0.244645      0.399218
O            -0.305846     -0.082850     -0.332395
O             0.197214     -0.092102     -0.413382
O             0.302776     -0.275651      0.341599
O            -0.047746     -0.232557     -0.352067
O            -0.448254     -0.103557      0.389729
O             0.050544     -0.064365      0.349630
O             0.446425     -0.254287     -0.404529
Fe            0.148076      0.081929     -0.282748
Fe            0.362255      0.253635      0.472514
Fe           -0.138910      0.261369      0.280573
Fe           -0.358265      0.079036     -0.468421
H            -0.055590      0.083941     -0.460490
H            -0.411136      0.260851      0.297100
H             0.089693      0.249262      0.455451
H             0.401272      0.108851     -0.308667
O            -0.201757      0.090981      0.405374
O            -0.315234      0.246475     -0.336947
O             0.194025      0.247276     -0.404590
O             0.310939      0.077726      0.338888
O            -0.041708      0.082738     -0.356939
O            -0.448753      0.250218      0.401866
O             0.053212      0.246213      0.350499
O             0.433677      0.073402     -0.396992
Ni            0.129431      0.419797     -0.277540
Fe            0.363708     -0.430257      0.478749
Fe           -0.136718     -0.413758      0.267932
Fe           -0.346393      0.423491     -0.469973
H            -0.076770      0.408577     -0.455664
H            -0.409222     -0.437937      0.290526
H             0.089366     -0.414533      0.442468
H             0.385121      0.416819     -0.303206
O            -0.185000      0.426679      0.407406
O            -0.319984     -0.415025     -0.342198
O             0.194741     -0.423067     -0.398808
O             0.307518      0.409348      0.340230
O            -0.060746      0.414614     -0.352044
O            -0.446734     -0.426787      0.386918
O             0.057127     -0.405760      0.344296
O             0.446606      0.418772     -0.393632
H             0.202379     -0.318696      0.087195
H             0.031731     -0.258653      0.174885
H             0.256460     -0.157013      0.192799
data_nwchem_pspw

_audit_creation_date   Tue Feb 28 17:28:06 2023
_audit_creation_method    generated by PSPW module of NWChem


_cell_length_a            10.0667
_cell_length_b             9.1552
_cell_length_c             9.2041
_cell_angle_alpha         90.0000
_cell_angle_beta          90.0000
_cell_angle_gamma         90.0000

_symmetry_space_group_name_H-M     P1  

loop_
_atom_site_type_symbol
_atom_site_fract_x
_atom_site_fract_y
_atom_site_fract_z
H             0.193257     -0.279941      0.355417
Fe            0.360778     -0.093131     -0.022964
Fe           -0.140344     -0.084165     -0.239453
Fe           -0.361311     -0.251810      0.040951
H            -0.134990     -0.261776     -0.005075
H            -0.393822     -0.071712     -0.206326
H             0.084263     -0.089291     -0.050366
H             0.393235     -0.256174      0.196775
O            -0.195104     -0.242705     -0.092802
O            -0.298285     -0.093102      0.146157
O             0.197054     -0.093150      0.099387
O             0.301833     -0.247641     -0.156022
O            -0.071102     -0.236221      0.139615
O            -0.445457     -0.081264     -0.109382
O             0.052082     -0.082284     -0.148217
O             0.445005     -0.259501      0.106128
Fe            0.130751      0.078134      0.234699
Fe            0.347711      0.243335     -0.019812
Fe           -0.133911      0.252843     -0.216387
Fe           -0.340535      0.079622      0.021639
H            -0.094096      0.084614      0.032719
H            -0.415003      0.250890     -0.208047
H             0.098039      0.238045     -0.056738
H             0.409144      0.081185      0.204819
O            -0.186748      0.094187     -0.090006
O            -0.319078      0.252166      0.164855
O             0.190619      0.244345      0.099029
O             0.301460      0.067356     -0.148233
O            -0.056553      0.087416      0.139976
O            -0.437730      0.245825     -0.103950
O             0.063365      0.238409     -0.151203
O             0.433684      0.082667      0.105412
Fe            0.138857      0.413424      0.237958
Fe            0.358617     -0.416770     -0.040292
Fe           -0.151933     -0.409051     -0.226827
Fe           -0.355414      0.414673      0.036121
H            -0.075165      0.416949      0.037347
H            -0.422467     -0.429873     -0.186476
H             0.097594     -0.414222     -0.037378
H             0.404907      0.415245      0.197743
O            -0.200279      0.429640     -0.094492
O            -0.314759     -0.422862      0.170095
O             0.197201     -0.425883      0.094854
O             0.304676      0.418660     -0.164644
O            -0.058737      0.422691      0.141855
O            -0.450698     -0.439913     -0.088444
O             0.063396     -0.418496     -0.133645
O             0.437674      0.420216      0.094572
Fe            0.144757     -0.249063     -0.274929
Fe            0.357036     -0.083809      0.475379
Fe           -0.140150     -0.084701      0.272436
Fe           -0.349893     -0.237980     -0.475344
H            -0.052581     -0.251552     -0.473077
H            -0.405289     -0.073818      0.299921
H             0.067603     -0.080790      0.454625
H             0.434076     -0.229052     -0.294452
O            -0.194473     -0.253416      0.402006
O            -0.304287     -0.065284     -0.354767
O             0.187183     -0.085503     -0.413510
O             0.288844     -0.262837      0.353838
O            -0.042647     -0.249862     -0.368795
O            -0.455526     -0.088906      0.389439
O             0.050300     -0.073690      0.352047
O             0.452905     -0.249258     -0.398155
Fe            0.151602      0.079990     -0.286406
Fe            0.362498      0.242387      0.462893
Fe           -0.145918      0.247714      0.272312
Fe           -0.358377      0.105502     -0.475323
H            -0.069977      0.080853     -0.459238
H            -0.410361      0.266723      0.296207
H             0.073539      0.253343      0.455032
H             0.408369      0.051787     -0.298370
O            -0.196929      0.080485      0.402223
O            -0.302744      0.266803     -0.340933
O             0.196557      0.251635     -0.412766
O             0.297519      0.074740      0.346959
O            -0.043089      0.090185     -0.357335
O            -0.447374      0.255846      0.393930
O             0.040689      0.240063      0.361916
O             0.440314      0.082871     -0.392556
Ni            0.145384      0.413840     -0.277464
Fe            0.353382     -0.432701      0.478995
Fe           -0.137403     -0.407343      0.267231
Fe           -0.353803      0.428091     -0.469233
H            -0.075071      0.421064     -0.446396
H            -0.418560     -0.408198      0.291177
H             0.083785     -0.420516      0.451130
H             0.381703      0.401926     -0.300297
O            -0.202772      0.420994      0.397176
O            -0.314226     -0.414559     -0.336395
O             0.187215     -0.423195     -0.405704
O             0.299556      0.408703      0.341167
O            -0.039962      0.415723     -0.350219
O            -0.440939     -0.412671      0.402220
O             0.057679     -0.415257      0.348928
O             0.431868      0.413412     -0.390164
H             0.160335     -0.336316      0.124976
H             0.012785     -0.204500      0.106625
H             0.198718     -0.149864      0.188233
data_nwchem_pspw

_audit_creation_date   Tue Feb 28 20:27:09 2023
_audit_creation_method    generated by PSPW module of NWChem


_cell_length_a            10.0667
_cell_length_b             9.1552
_cell_length_c             9.2041
_cell_angle_alpha         90.0000
_cell_angle_beta          90.0000
_cell_angle_gamma         90.0000

_symmetry_space_group_name_H-M     P1  

loop_
_atom_site_type_symbol
_atom_site_fract_x
_atom_site_fract_y
_atom_site_fract_z
H             0.195557     -0.268688      0.354601
Fe            0.370045     -0.075509     -0.032746
Fe           -0.144352     -0.089479     -0.237346
Fe           -0.359231     -0.253124      0.040109
H            -0.132750     -0.228113     -0.008194
H            -0.424958     -0.091732     -0.210500
H             0.072544     -0.085980     -0.055381
H             0.393054     -0.248163      0.199872
O            -0.199980     -0.236341     -0.092064
O            -0.307129     -0.079637      0.160156
O             0.196350     -0.084773      0.108678
O             0.307706     -0.247369     -0.163593
O            -0.069286     -0.240709      0.146615
O            -0.441727     -0.095350     -0.106760
O             0.054011     -0.089808     -0.158907
O             0.441620     -0.246081      0.107153
Fe            0.144104      0.088613      0.234207
Fe            0.360208      0.253783     -0.009708
Fe           -0.132481      0.254943     -0.214430
Fe           -0.339436      0.080204      0.029709
H            -0.088320      0.086283      0.045635
H            -0.409608      0.255446     -0.188937
H             0.108111      0.261012     -0.054736
H             0.420357      0.078128      0.208965
O            -0.184997      0.071386     -0.105439
O            -0.305790      0.245414      0.158098
O             0.187418      0.256169      0.095782
O             0.308921      0.098717     -0.139899
O            -0.047530      0.114384      0.139447
O            -0.451217      0.242453     -0.090772
O             0.063664      0.249689     -0.153966
O             0.453126      0.080934      0.108102
Fe            0.133196      0.424913      0.225752
Fe            0.359871     -0.415336     -0.037236
Fe           -0.137678     -0.430462     -0.228215
Fe           -0.361919      0.412503      0.020234
H            -0.104673      0.417076      0.036570
H            -0.394464     -0.415694     -0.193488
H             0.089577     -0.415998     -0.057069
H             0.415241      0.412112      0.208471
O            -0.191882      0.409669     -0.080129
O            -0.312000     -0.411815      0.158811
O             0.203836     -0.414306      0.089281
O             0.310569      0.413790     -0.174713
O            -0.055317      0.431497      0.137071
O            -0.444844     -0.411215     -0.097293
O             0.059694     -0.421565     -0.159385
O             0.449475      0.411987      0.109757
Fe            0.142983     -0.260826     -0.282072
Fe            0.357440     -0.078784      0.472579
Fe           -0.145631     -0.086138      0.292692
Fe           -0.361957     -0.250798     -0.450219
H            -0.101334     -0.250137     -0.462952
H            -0.408136     -0.094216      0.306571
H             0.087911     -0.078298      0.446779
H             0.391240     -0.255776     -0.299032
O            -0.217160     -0.245375      0.400472
O            -0.316407     -0.072081     -0.348913
O             0.192751     -0.091291     -0.408864
O             0.293677     -0.250196      0.350542
O            -0.068427     -0.246435     -0.360852
O            -0.444662     -0.073641      0.401405
O             0.056316     -0.078175      0.348075
O             0.440296     -0.239408     -0.392826
Fe            0.151737      0.068387     -0.282565
Fe            0.359982      0.249606      0.464980
Fe           -0.152116      0.250330      0.270674
Fe           -0.366836      0.097524     -0.488850
H            -0.067847      0.108166     -0.441664
H            -0.400568      0.251657      0.289925
H             0.091593      0.242334      0.456014
H             0.404618      0.080650     -0.289592
O            -0.207537      0.084409      0.402911
O            -0.308401      0.252500     -0.345047
O             0.192949      0.245061     -0.414987
O             0.307062      0.073138      0.348107
O            -0.049282      0.090340     -0.342146
O            -0.441423      0.260310      0.386286
O             0.047050      0.258262      0.359840
O             0.432735      0.079009     -0.393427
Ni            0.144316      0.405810     -0.284868
Fe            0.358421     -0.425468      0.477397
Fe           -0.144097     -0.422077      0.266736
Fe           -0.358679      0.422115     -0.464423
H            -0.063628      0.392557     -0.458322
H            -0.418684     -0.419612      0.314593
H             0.077347     -0.413863      0.439243
H             0.395671      0.412168     -0.308088
O            -0.205048      0.428512      0.403337
O            -0.315922     -0.427682     -0.326478
O             0.190416     -0.421983     -0.420871
O             0.314291      0.414960      0.335848
O            -0.050749      0.400812     -0.357131
O            -0.453573     -0.423186      0.410933
O             0.061968     -0.406104      0.335174
O             0.436865      0.406616     -0.410132
H             0.202646     -0.316429      0.119318
H             0.019586     -0.258707      0.178317
H             0.204299     -0.134804      0.200505
data_nwchem_pspw

_audit_creation_date   Tue Feb 28 23:27:48 2023
_audit_creation_method    generated by PSPW module of NWChem


_cell_length_a            10.0667
_cell_length_b             9.1552
_cell_length_c             9.2041
_cell_angle_alpha         90.0000
_cell_angle_beta          90.0000
_cell_angle_gamma         90.0000

_symmetry_space_group_name_H-M     P1  

loop_
_atom_site_type_symbol
_atom_site_fract_x
_atom_site_fract_y
_atom_site_fract_z
H             0.189135     -0.266058      0.355490
Fe            0.366013     -0.078571     -0.018411
Fe           -0.125664     -0.080479     -0.219935
Fe           -0.354145     -0.252039      0.027313
H            -0.112604     -0.250028      0.013887
H            -0.395294     -0.081406     -0.205636
H             0.109726     -0.069904     -0.051499
H             0.415159     -0.260817      0.191233
O            -0.174362     -0.246863     -0.074472
O            -0.315207     -0.092149      0.162653
O             0.216278     -0.091764      0.116944
O             0.293106     -0.245949     -0.144426
O            -0.051733     -0.265567      0.142844
O            -0.443318     -0.089015     -0.113044
O             0.064552     -0.081916     -0.142199
O             0.443643     -0.267816      0.089889
Fe            0.137962      0.081347      0.223009
Fe            0.366874      0.260334     -0.015135
Fe           -0.147723      0.260239     -0.215722
Fe           -0.352962      0.083870      0.028900
H            -0.087369      0.090871      0.049184
H            -0.414302      0.225536     -0.204875
H             0.090987      0.268005     -0.043186
H             0.408331      0.076566      0.210832
O            -0.196808      0.096488     -0.088658
O            -0.294034      0.244594      0.157566
O             0.199112      0.253341      0.094907
O             0.325885      0.085021     -0.139635
O            -0.052876      0.072744      0.148691
O            -0.446196      0.245889     -0.102035
O             0.064073      0.247947     -0.145879
O             0.463754      0.066079      0.119604
Fe            0.131539      0.427749      0.212534
Fe            0.362462     -0.415064     -0.052673
Fe           -0.144374     -0.409921     -0.237102
Fe           -0.352328      0.410722      0.034632
H            -0.102479      0.410724      0.035375
H            -0.401296     -0.430190     -0.210697
H             0.058200     -0.430435     -0.051555
H             0.415792      0.421945      0.209310
O            -0.201276      0.422808     -0.093360
O            -0.300035     -0.419585      0.157364
O             0.175319     -0.403774      0.084945
O             0.318365      0.413286     -0.163409
O            -0.059252      0.406121      0.130204
O            -0.435252     -0.429918     -0.104488
O             0.054156     -0.433409     -0.156749
O             0.451167      0.411867      0.103818
Fe            0.137200     -0.250350     -0.272175
Fe            0.345637     -0.079341      0.471043
Fe           -0.149010     -0.088832      0.280095
Fe           -0.353598     -0.250599     -0.462992
H            -0.104081     -0.260669     -0.457771
H            -0.425425     -0.080556      0.301838
H             0.088763     -0.082912      0.445189
H             0.417266     -0.219627     -0.301219
O            -0.202624     -0.256954      0.407457
O            -0.301054     -0.084289     -0.330839
O             0.179758     -0.081872     -0.404567
O             0.282185     -0.253163      0.355349
O            -0.054351     -0.252738     -0.364792
O            -0.443035     -0.088793      0.406813
O             0.046687     -0.079154      0.347341
O             0.429952     -0.230472     -0.406317
Fe            0.153982      0.092961     -0.278817
Fe            0.350640      0.255977      0.455436
Fe           -0.141278      0.238996      0.274813
Fe           -0.372481      0.075737     -0.461361
H            -0.078263      0.090588     -0.455643
H            -0.420717      0.245723      0.298310
H             0.050415      0.271544      0.442164
H             0.404567      0.080071     -0.280193
O            -0.194164      0.078762      0.414953
O            -0.311171      0.247593     -0.342455
O             0.209946      0.258422     -0.396810
O             0.308172      0.090735      0.333552
O            -0.047940      0.100401     -0.351229
O            -0.457702      0.258846      0.393658
O             0.043801      0.260680      0.333625
O             0.431249      0.083851     -0.385345
Ni            0.144496      0.411163     -0.274020
Fe            0.352485     -0.415306      0.489362
Fe           -0.141833     -0.431406      0.270249
Fe           -0.353727      0.408657     -0.488900
H            -0.090303      0.387364     -0.457723
H            -0.435226     -0.399176      0.294977
H             0.061223     -0.440160      0.441072
H             0.419549      0.406697     -0.314779
O            -0.192740      0.403991      0.404486
O            -0.305053     -0.425023     -0.351151
O             0.189758     -0.414698     -0.395648
O             0.300165      0.418873      0.333377
O            -0.051306      0.415110     -0.356825
O            -0.462050     -0.409238      0.396970
O             0.045580     -0.410238      0.343545
O             0.442721      0.416950     -0.416786
H             0.150183     -0.306041      0.084207
H             0.027698     -0.226789      0.184213
H             0.223426     -0.181594      0.169435
data_nwchem_pspw

_audit_creation_date   Wed Mar  1 02:28:08 2023
_audit_creation_method    generated by PSPW module of NWChem


_cell_length_a            10.0667
_cell_length_b             9.1552
_cell_length_c             9.2041
_cell_angle_alpha         90.0000
_cell_angle_beta          90.0000
_cell_angle_gamma         90.0000

_symmetry_space_group_name_H-M     P1  

loop_
_atom_site_type_symbol
_atom_site_fract_x
_atom_site_fract_y
_atom_site_fract_z
H             0.192283     -0.214334      0.361699
Fe            0.365689     -0.080657     -0.051362
Fe           -0.146005     -0.073532     -0.227966
Fe           -0.369721     -0.247396      0.030552
H            -0.109066     -0.250490     -0.015553
H            -0.399608     -0.096350     -0.220198
H             0.072919     -0.077833     -0.060018
H             0.438596     -0.213029      0.200927
O            -0.181620     -0.250939     -0.087669
O            -0.313134     -0.078982      0.162543
O             0.201723     -0.067007      0.071847
O             0.303115     -0.252999     -0.149383
O            -0.045374     -0.262073      0.139850
O            -0.445585     -0.081327     -0.119680
O             0.053908     -0.075763     -0.163594
O             0.439327     -0.261715      0.106398
Fe            0.140578      0.088343      0.224098
Fe            0.354215      0.249431     -0.022957
Fe           -0.146981      0.246946     -0.218443
Fe           -0.351299      0.091034      0.037721
H            -0.074366      0.097291      0.042114
H            -0.421976      0.240218     -0.197527
H             0.086469      0.254321     -0.052556
H             0.397042      0.094134      0.204729
O            -0.194507      0.086294     -0.086519
O            -0.312059      0.254469      0.166818
O             0.191795      0.252121      0.101698
O             0.317939      0.088412     -0.170959
O            -0.039762      0.085064      0.145738
O            -0.444251      0.247866     -0.096184
O             0.058378      0.254359     -0.152918
O             0.437568      0.089209      0.105498
Fe            0.147001      0.436286      0.238508
Fe            0.363142     -0.420025     -0.041135
Fe           -0.137106     -0.420985     -0.230688
Fe           -0.360666      0.415853      0.018597
H            -0.102510      0.424864      0.047669
H            -0.408603     -0.408872     -0.204813
H             0.059234     -0.413621     -0.036698
H             0.401131      0.407956      0.192289
O            -0.203589      0.414831     -0.099420
O            -0.303428     -0.423285      0.150107
O             0.213944     -0.409763      0.115271
O             0.296086      0.406875     -0.151817
O            -0.054768      0.423090      0.142801
O            -0.438972     -0.414777     -0.094846
O             0.053768     -0.422928     -0.141142
O             0.444564      0.404751      0.096969
Fe            0.139631     -0.259367     -0.269771
Fe            0.366400     -0.077109      0.489551
Fe           -0.141577     -0.094725      0.269351
Fe           -0.349045     -0.246165     -0.469381
H            -0.083580     -0.259530     -0.458722
H            -0.414351     -0.050362      0.297191
H             0.088339     -0.069286      0.443731
H             0.422410     -0.259491     -0.297139
O            -0.188139     -0.265997      0.404092
O            -0.301936     -0.072629     -0.350843
O             0.202331     -0.088859     -0.391101
O             0.285544     -0.247526      0.368697
O            -0.060341     -0.261527     -0.353994
O            -0.451919     -0.078887      0.389255
O             0.064103     -0.100173      0.345758
O             0.456258     -0.246071     -0.394096
Fe            0.133379      0.097672     -0.287356
Fe            0.355057      0.239083      0.465225
Fe           -0.143042      0.249485      0.280233
Fe           -0.356206      0.083836     -0.494763
H            -0.082682      0.092074     -0.449535
H            -0.412931      0.263058      0.291279
H             0.100427      0.251386      0.451340
H             0.422930      0.095969     -0.296109
O            -0.196271      0.070412      0.399317
O            -0.314051      0.240283     -0.339093
O             0.195169      0.261928     -0.406710
O             0.303598      0.069526      0.347293
O            -0.055246      0.107829     -0.351903
O            -0.446663      0.253048      0.392472
O             0.057135      0.256090      0.354976
O             0.452757      0.090278     -0.403276
Ni            0.131597      0.404165     -0.277059
Fe            0.356754     -0.416732      0.476767
Fe           -0.142986     -0.432266      0.277768
Fe           -0.370141      0.414651     -0.458363
H            -0.072423      0.394496     -0.451630
H            -0.411570     -0.402825      0.294762
H             0.087330     -0.432930      0.472160
H             0.387019      0.408422     -0.301576
O            -0.195711      0.406534      0.411445
O            -0.310675     -0.416926     -0.341877
O             0.199015     -0.429192     -0.398219
O             0.314692      0.409677      0.344559
O            -0.050399      0.409273     -0.350569
O            -0.443428     -0.398841      0.394764
O             0.052457     -0.430132      0.374597
O             0.435769      0.420281     -0.393270
H             0.259400     -0.339213      0.174547
H             0.034329     -0.303778      0.175127
H             0.195046     -0.156701      0.121811
data_nwchem_pspw

_audit_creation_date   Wed Mar  1 05:29:59 2023
_audit_creation_method    generated by PSPW module of NWChem


_cell_length_a            10.0667
_cell_length_b             9.1552
_cell_length_c             9.2041
_cell_angle_alpha         90.0000
_cell_angle_beta          90.0000
_cell_angle_gamma         90.0000

_symmetry_space_group_name_H-M     P1  

loop_
_atom_site_type_symbol
_atom_site_fract_x
_atom_site_fract_y
_atom_site_fract_z
H             0.213946     -0.257191      0.370913
Fe            0.351219     -0.085550     -0.024437
Fe           -0.162067     -0.069380     -0.222253
Fe           -0.364920     -0.250013      0.040200
H            -0.139630     -0.255495     -0.003510
H            -0.406734     -0.082836     -0.195755
H             0.083403     -0.087812     -0.043225
H             0.401478     -0.266566      0.194352
O            -0.205043     -0.247131     -0.088515
O            -0.294348     -0.079543      0.155415
O             0.188674     -0.106830      0.100155
O             0.313854     -0.242760     -0.168502
O            -0.058803     -0.249832      0.149837
O            -0.451106     -0.099482     -0.103081
O             0.050767     -0.068698     -0.141226
O             0.429871     -0.245207      0.094940
Fe            0.158177      0.080572      0.229081
Fe            0.344663      0.249036     -0.032993
Fe           -0.137053      0.268571     -0.224682
Fe           -0.362083      0.084266      0.024437
H            -0.097375      0.080059      0.032812
H            -0.422865      0.254168     -0.199589
H             0.095224      0.257463     -0.051073
H             0.417733      0.094516      0.199057
O            -0.198865      0.094532     -0.089804
O            -0.312847      0.246758      0.171467
O             0.184967      0.256578      0.095251
O             0.302970      0.080462     -0.146960
O            -0.055140      0.103629      0.128737
O            -0.458951      0.243850     -0.099650
O             0.064614      0.252226     -0.152525
O             0.434684      0.079480      0.093575
Fe            0.141089      0.412246      0.234088
Fe            0.350244     -0.425417     -0.059558
Fe           -0.146555     -0.417141     -0.232196
Fe           -0.352969      0.413414      0.042538
H            -0.093290      0.451707      0.056459
H            -0.417929     -0.410682     -0.186731
H             0.084181     -0.415130     -0.054276
H             0.401905      0.417722      0.191242
O            -0.193587      0.415946     -0.072543
O            -0.309894     -0.411857      0.169083
O             0.202281     -0.428067      0.097296
O             0.292921      0.410542     -0.178733
O            -0.046588      0.436905      0.143314
O            -0.444602     -0.422189     -0.084402
O             0.055885     -0.427604     -0.150790
O             0.435589      0.405915      0.093365
Fe            0.138338     -0.253866     -0.297312
Fe            0.365442     -0.080023      0.464189
Fe           -0.118322     -0.074181      0.277910
Fe           -0.352610     -0.248390     -0.478770
H            -0.090831     -0.240575     -0.455039
H            -0.398464     -0.102529      0.278157
H             0.104112     -0.080087      0.463552
H             0.399268     -0.219799     -0.301639
O            -0.181379     -0.247463      0.412839
O            -0.328443     -0.071136     -0.342822
O             0.212270     -0.084075     -0.408666
O             0.306761     -0.266823      0.342667
O            -0.054676     -0.239290     -0.351720
O            -0.435486     -0.086520      0.384473
O             0.066406     -0.076022      0.364170
O             0.438669     -0.243679     -0.402543
Fe            0.137984      0.080394     -0.267095
Fe            0.358121      0.245176      0.481447
Fe           -0.136268      0.239691      0.269996
Fe           -0.350730      0.089894     -0.477753
H            -0.081836      0.093796     -0.448330
H            -0.404267      0.266454      0.306836
H             0.084960      0.226917      0.450898
H             0.399529      0.053009     -0.297893
O            -0.186856      0.089591      0.413868
O            -0.306055      0.256818     -0.339866
O             0.178481      0.236376     -0.411791
O             0.309839      0.082464      0.331313
O            -0.065870      0.085355     -0.341407
O            -0.448792      0.247056      0.400671
O             0.068932      0.239152      0.344682
O             0.443711      0.078489     -0.391498
Ni            0.139051      0.409776     -0.284308
Fe            0.364668     -0.422643      0.489319
Fe           -0.141210     -0.416661      0.283460
Fe           -0.359485      0.415734     -0.469603
H            -0.091068      0.411812     -0.468166
H            -0.408135     -0.415821      0.301650
H             0.079726     -0.421045      0.440534
H             0.395807      0.412251     -0.287164
O            -0.190518      0.413895      0.410801
O            -0.303519     -0.405653     -0.345364
O             0.193664     -0.423186     -0.408791
O             0.306502      0.400838      0.354292
O            -0.043271      0.420275     -0.374303
O            -0.445979     -0.407641      0.401804
O             0.050593     -0.427617      0.340660
O             0.443791      0.421226     -0.383964
H             0.227251     -0.371043      0.178414
H             0.025325     -0.292895      0.132684
H             0.217742     -0.172510      0.175074
data_nwchem_pspw

_audit_creation_date   Wed Mar  1 08:28:51 2023
_audit_creation_method    generated by PSPW module of NWChem


_cell_length_a            10.0667
_cell_length_b             9.1552
_cell_length_c             9.2041
_cell_angle_alpha         90.0000
_cell_angle_beta          90.0000
_cell_angle_gamma         90.0000

_symmetry_space_group_name_H-M     P1  

loop_
_atom_site_type_symbol
_atom_site_fract_x
_atom_site_fract_y
_atom_site_fract_z
H             0.196522     -0.263078      0.354765
Fe            0.370910     -0.086930     -0.038212
Fe           -0.139366     -0.087875     -0.231402
Fe           -0.361383     -0.247622      0.050045
H            -0.132952     -0.259066     -0.004254
H            -0.405817     -0.096829     -0.198859
H             0.077008     -0.078392     -0.040385
H             0.412172     -0.216611      0.203081
O            -0.196768     -0.261113     -0.082553
O            -0.303016     -0.080183      0.152880
O             0.205549     -0.082496      0.082171
O             0.306490     -0.248361     -0.160896
O            -0.060146     -0.260538      0.138637
O            -0.433477     -0.074232     -0.097775
O             0.051159     -0.077123     -0.141023
O             0.438008     -0.247080      0.108729
Fe            0.145448      0.090939      0.210779
Fe            0.364876      0.252482     -0.028477
Fe           -0.143164      0.243068     -0.223649
Fe           -0.346169      0.091040      0.039334
H            -0.085043      0.082316      0.038567
H            -0.420064      0.255076     -0.208510
H             0.094570      0.267781     -0.049393
H             0.423809      0.081216      0.204301
O            -0.174297      0.097739     -0.075943
O            -0.302851      0.259823      0.159643
O             0.196378      0.256942      0.082118
O             0.313019      0.087988     -0.152595
O            -0.046927      0.066423      0.144849
O            -0.448029      0.251578     -0.106845
O             0.062725      0.259900     -0.149163
O             0.451234      0.094376      0.103303
Fe            0.145396      0.419411      0.218257
Fe            0.352122     -0.426829     -0.039388
Fe           -0.150012     -0.413292     -0.235257
Fe           -0.358854      0.427065      0.014463
H            -0.084022      0.420572      0.048439
H            -0.424484     -0.389760     -0.198471
H             0.070361     -0.405024     -0.045753
H             0.391979      0.412952      0.191403
O            -0.197565      0.412992     -0.103604
O            -0.306905     -0.417610      0.168795
O             0.193341     -0.390631      0.085663
O             0.308295      0.414727     -0.173231
O            -0.049096      0.408725      0.145001
O            -0.449414     -0.406586     -0.097040
O             0.044830     -0.411083     -0.142889
O             0.438040      0.421181      0.093415
Fe            0.146425     -0.257329     -0.270480
Fe            0.345837     -0.073859      0.478262
Fe           -0.133154     -0.096831      0.274252
Fe           -0.366856     -0.239062     -0.490279
H            -0.088926     -0.253219     -0.441214
H            -0.418012     -0.086670      0.295224
H             0.078769     -0.089117      0.447571
H             0.409058     -0.251494     -0.310977
O            -0.209149     -0.251811      0.399575
O            -0.315744     -0.090670     -0.340623
O             0.192622     -0.081693     -0.400570
O             0.292352     -0.259298      0.349400
O            -0.061149     -0.252452     -0.340110
O            -0.462557     -0.081084      0.387826
O             0.052239     -0.070117      0.348812
O             0.439027     -0.252067     -0.411468
Fe            0.141963      0.088204     -0.267923
Fe            0.358165      0.247901      0.470576
Fe           -0.143053      0.246747      0.279654
Fe           -0.350434      0.084144     -0.461833
H            -0.075454      0.067044     -0.455855
H            -0.428145      0.254354      0.305580
H             0.095647      0.245445      0.431581
H             0.390920      0.083670     -0.308773
O            -0.182783      0.081480      0.412982
O            -0.308101      0.255596     -0.348951
O             0.193962      0.260805     -0.397915
O             0.303098      0.089595      0.332744
O            -0.046283      0.089559     -0.353634
O            -0.448589      0.241178      0.404884
O             0.055233      0.250215      0.335736
O             0.439415      0.075567     -0.400632
Ni            0.139271      0.410889     -0.278788
Fe            0.350410     -0.434615      0.475826
Fe           -0.139809     -0.427124      0.288361
Fe           -0.364337      0.419707     -0.466236
H            -0.085302      0.412673     -0.439533
H            -0.441652     -0.420395      0.300728
H             0.098995     -0.462011      0.459627
H             0.406648      0.422161     -0.299056
O            -0.196997      0.406082      0.420667
O            -0.316539     -0.407215     -0.339657
O             0.198431     -0.429847     -0.398323
O             0.314924      0.403499      0.336413
O            -0.054022      0.415674     -0.338264
O            -0.454236     -0.416743      0.407074
O             0.059158     -0.438894      0.366360
O             0.438713      0.419106     -0.399801
H             0.229204     -0.328888      0.157834
H             0.029862     -0.232995      0.127007
H             0.216898     -0.151760      0.157377
data_nwchem_pspw

_audit_creation_date   Wed Mar  1 11:28:31 2023
_audit_creation_method    generated by PSPW module of NWChem


_cell_length_a            10.0667
_cell_length_b             9.1552
_cell_length_c             9.2041
_cell_angle_alpha         90.0000
_cell_angle_beta          90.0000
_cell_angle_gamma         90.0000

_symmetry_space_group_name_H-M     P1  

loop_
_atom_site_type_symbol
_atom_site_fract_x
_atom_site_fract_y
_atom_site_fract_z
H             0.180661     -0.257290      0.356600
Fe            0.369407     -0.078454     -0.033193
Fe           -0.135219     -0.078087     -0.233230
Fe           -0.354078     -0.253039      0.037842
H            -0.119485     -0.260210     -0.009244
H            -0.389266     -0.073677     -0.201621
H             0.093205     -0.099083     -0.049939
H             0.411882     -0.244353      0.205714
O            -0.200653     -0.252254     -0.092787
O            -0.298548     -0.091213      0.167377
O             0.182027     -0.078083      0.081033
O             0.298470     -0.257810     -0.153022
O            -0.076366     -0.268168      0.147686
O            -0.435289     -0.091340     -0.101946
O             0.050917     -0.097147     -0.145589
O             0.443775     -0.253158      0.109416
Fe            0.139165      0.098726      0.229768
Fe            0.358753      0.247770     -0.030603
Fe           -0.141981      0.260219     -0.225075
Fe           -0.340318      0.081731      0.037185
H            -0.097765      0.095302      0.057390
H            -0.412923      0.253717     -0.205735
H             0.088708      0.246504     -0.047663
H             0.429211      0.081490      0.196124
O            -0.192681      0.089111     -0.099896
O            -0.304689      0.255458      0.167595
O             0.186069      0.253823      0.088094
O             0.318479      0.080542     -0.159430
O            -0.066761      0.090077      0.160667
O            -0.438258      0.243768     -0.106300
O             0.059769      0.248306     -0.148231
O             0.457068      0.083721      0.096103
Fe            0.140502      0.411438      0.227618
Fe            0.366221     -0.419202     -0.035762
Fe           -0.140678     -0.417458     -0.243257
Fe           -0.340634      0.415511      0.016906
H            -0.085416      0.427762      0.058065
H            -0.406895     -0.403197     -0.209818
H             0.081084     -0.425841     -0.062832
H             0.396124      0.428279      0.184739
O            -0.175391      0.430327     -0.085738
O            -0.315025     -0.427275      0.155284
O             0.211084     -0.426689      0.091690
O             0.314518      0.425635     -0.164297
O            -0.053877      0.417901      0.157081
O            -0.441302     -0.405136     -0.109516
O             0.046947     -0.426719     -0.159930
O             0.424599      0.403563      0.084396
Fe            0.132629     -0.261608     -0.278008
Fe            0.355501     -0.074018      0.461545
Fe           -0.132003     -0.089280      0.296191
Fe           -0.361387     -0.245634     -0.473198
H            -0.081026     -0.278033     -0.471098
H            -0.406277     -0.081829      0.293579
H             0.072668     -0.053779      0.460516
H             0.420383     -0.264060     -0.310026
O            -0.211827     -0.259421      0.403402
O            -0.312392     -0.095557     -0.326411
O             0.204503     -0.090934     -0.400297
O             0.276506     -0.250138      0.349860
O            -0.061546     -0.240790     -0.372424
O            -0.441109     -0.081684      0.395815
O             0.049769     -0.066227      0.360284
O             0.448414     -0.249841     -0.404528
Fe            0.142630      0.082878     -0.276836
Fe            0.361034      0.250380      0.470695
Fe           -0.150223      0.242566      0.282893
Fe           -0.360203      0.085555     -0.455195
H            -0.096319      0.082256     -0.451403
H            -0.415812      0.243822      0.299424
H             0.097765      0.243162      0.462027
H             0.416305      0.079501     -0.301663
O            -0.194676      0.075839      0.411710
O            -0.320185      0.243168     -0.334281
O             0.199008      0.248573     -0.417695
O             0.300386      0.086331      0.339302
O            -0.053780      0.098980     -0.352425
O            -0.448268      0.258340      0.395047
O             0.056448      0.253256      0.362811
O             0.441619      0.079776     -0.405624
Ni            0.148157      0.406125     -0.274631
Fe            0.352141     -0.415135      0.478244
Fe           -0.161106     -0.422345      0.278106
Fe           -0.362929      0.423565     -0.474293
H            -0.062835      0.397192     -0.467369
H            -0.448913     -0.426962      0.293207
H             0.077416     -0.425195      0.447066
H             0.404574      0.425916     -0.299389
O            -0.201745      0.412492      0.409365
O            -0.315641     -0.402869     -0.339669
O             0.190516     -0.426234     -0.403104
O             0.302783      0.413967      0.338206
O            -0.041618      0.411520     -0.363604
O            -0.464151     -0.411371      0.392423
O             0.048879     -0.414262      0.349307
O             0.435339      0.424325     -0.403081
H             0.212859     -0.329060      0.120405
H             0.012869     -0.292611      0.170995
H             0.211039     -0.140946      0.157458
data_nwchem_pspw

_audit_creation_date   Wed Mar  1 14:30:34 2023
_audit_creation_method    generated by PSPW module of NWChem


_cell_length_a            10.0667
_cell_length_b             9.1552
_cell_length_c             9.2041
_cell_angle_alpha         90.0000
_cell_angle_beta          90.0000
_cell_angle_gamma         90.0000

_symmetry_space_group_name_H-M     P1  

loop_
_atom_site_type_symbol
_atom_site_fract_x
_atom_site_fract_y
_atom_site_fract_z
H             0.202234     -0.254144      0.335596
Fe            0.367282     -0.063008     -0.030893
Fe           -0.140809     -0.061799     -0.215031
Fe           -0.369410     -0.252483      0.033646
H            -0.132460     -0.256168     -0.008971
H            -0.399452     -0.081596     -0.198258
H             0.085353     -0.110827     -0.058860
H             0.417156     -0.238206      0.198331
O            -0.193124     -0.244358     -0.092596
O            -0.319119     -0.074352      0.152826
O             0.203179     -0.072602      0.083663
O             0.330616     -0.252892     -0.172735
O            -0.062938     -0.244616      0.138355
O            -0.441422     -0.083446     -0.101973
O             0.062500     -0.093181     -0.159778
O             0.438555     -0.245036      0.098001
Fe            0.134017      0.072894      0.229162
Fe            0.349713      0.261856     -0.014489
Fe           -0.140316      0.257668     -0.219094
Fe           -0.353088      0.091889      0.028907
H            -0.092550      0.083559      0.047668
H            -0.398952      0.230015     -0.205932
H             0.089547      0.250284     -0.040123
H             0.417169      0.082568      0.200730
O            -0.187057      0.102810     -0.076735
O            -0.314955      0.259921      0.161743
O             0.187544      0.241673      0.108276
O             0.310583      0.105588     -0.155579
O            -0.050228      0.065574      0.140523
O            -0.432042      0.242221     -0.102548
O             0.061447      0.252908     -0.139918
O             0.456621      0.090928      0.099118
Fe            0.133036      0.419616      0.228840
Fe            0.355910     -0.419572     -0.045306
Fe           -0.143047     -0.421465     -0.232014
Fe           -0.351251      0.419959      0.022796
H            -0.104342      0.407591      0.050902
H            -0.409060     -0.407487     -0.206551
H             0.084376     -0.439547     -0.054932
H             0.395407      0.399711      0.193105
O            -0.188265      0.420610     -0.084181
O            -0.325244     -0.412908      0.163751
O             0.195153     -0.409688      0.102139
O             0.312010      0.410034     -0.165817
O            -0.072948      0.412121      0.152875
O            -0.445790     -0.408633     -0.105813
O             0.075835     -0.429935     -0.160036
O             0.436711      0.423438      0.095247
Fe            0.156893     -0.251299     -0.280062
Fe            0.362774     -0.089338      0.484958
Fe           -0.146755     -0.090167      0.272157
Fe           -0.351798     -0.239309     -0.480888
H            -0.081694     -0.265969     -0.455814
H            -0.412161     -0.089401      0.284575
H             0.066541     -0.101839      0.451955
H             0.451387     -0.235181     -0.296356
O            -0.207706     -0.254882      0.384588
O            -0.299761     -0.074350     -0.339388
O             0.211716     -0.084691     -0.394195
O             0.297797     -0.261669      0.342327
O            -0.050391     -0.246630     -0.357874
O            -0.448548     -0.092789      0.382936
O             0.044998     -0.084940      0.353806
O             0.457948     -0.256540     -0.395714
Fe            0.144482      0.079131     -0.273999
Fe            0.358935      0.248813      0.463415
Fe           -0.163255      0.229682      0.284859
Fe           -0.357073      0.085681     -0.466655
H            -0.067811      0.072336     -0.443054
H            -0.432521      0.266372      0.288352
H             0.079300      0.244825      0.454373
H             0.408542      0.095222     -0.307213
O            -0.189582      0.063212      0.413218
O            -0.303655      0.245247     -0.345265
O             0.199013      0.255246     -0.408248
O             0.312855      0.072571      0.331729
O            -0.036175      0.104654     -0.347094
O            -0.456616      0.258039      0.389889
O             0.055952      0.239005      0.353762
O             0.440738      0.082991     -0.406599
Ni            0.145417      0.407498     -0.276890
Fe            0.360616     -0.424402      0.479923
Fe           -0.155929     -0.426102      0.275640
Fe           -0.362404      0.416394     -0.475052
H            -0.082189      0.405628     -0.456368
H            -0.415059     -0.410810      0.291846
H             0.054735     -0.427868      0.460083
H             0.399971      0.405777     -0.305527
O            -0.202009      0.392321      0.410820
O            -0.307328     -0.416108     -0.348274
O             0.200402     -0.436345     -0.407003
O             0.307976      0.415489      0.342269
O            -0.047742      0.422308     -0.359683
O            -0.446341     -0.409834      0.392000
O             0.039410     -0.426263      0.358950
O             0.446891      0.419349     -0.397751
H             0.261148     -0.370883      0.168149
H             0.023993     -0.281410      0.156080
H             0.214346     -0.159979      0.137046
data_nwchem_pspw

_audit_creation_date   Wed Mar  1 17:32:32 2023
_audit_creation_method    generated by PSPW module of NWChem


_cell_length_a            10.0667
_cell_length_b             9.1552
_cell_length_c             9.2041
_cell_angle_alpha         90.0000
_cell_angle_beta          90.0000
_cell_angle_gamma         90.0000

_symmetry_space_group_name_H-M     P1  

loop_
_atom_site_type_symbol
_atom_site_fract_x
_atom_site_fract_y
_atom_site_fract_z
H             0.204152     -0.274803      0.359742
Fe            0.358556     -0.085015     -0.017421
Fe           -0.137271     -0.071987     -0.213073
Fe           -0.367096     -0.261078      0.020240
H            -0.124298     -0.257600     -0.010192
H            -0.422882     -0.089354     -0.194269
H             0.081970     -0.099401     -0.041789
H             0.408047     -0.242510      0.203007
O            -0.190897     -0.260904     -0.100035
O            -0.319586     -0.097659      0.164105
O             0.192020     -0.099579      0.100962
O             0.310412     -0.257885     -0.146007
O            -0.057794     -0.247082      0.127487
O            -0.445593     -0.083452     -0.087565
O             0.061307     -0.091568     -0.142748
O             0.433839     -0.262827      0.106040
Fe            0.129555      0.087605      0.232592
Fe            0.342162      0.248612     -0.025951
Fe           -0.147837      0.263535     -0.227638
Fe           -0.358394      0.078332      0.036689
H            -0.097317      0.088853      0.037984
H            -0.415214      0.247372     -0.186634
H             0.086313      0.258781     -0.043445
H             0.409960      0.096300      0.205505
O            -0.199868      0.082635     -0.083491
O            -0.317146      0.246356      0.163970
O             0.186782      0.255126      0.107008
O             0.294557      0.073112     -0.141332
O            -0.057054      0.077715      0.138449
O            -0.450865      0.240578     -0.089766
O             0.057048      0.255934     -0.145346
O             0.435288      0.080024      0.104492
Fe            0.145715      0.421465      0.240696
Fe            0.356229     -0.425646     -0.033348
Fe           -0.128425     -0.429969     -0.240574
Fe           -0.355979      0.414165      0.027612
H            -0.078862      0.406827      0.046565
H            -0.378612     -0.431621     -0.202880
H             0.091742     -0.435070     -0.063117
H             0.409327      0.405852      0.197822
O            -0.192824      0.427825     -0.087394
O            -0.301960     -0.420172      0.156319
O             0.178807     -0.410146      0.086362
O             0.303823      0.413979     -0.159038
O            -0.052228      0.412316      0.147993
O            -0.435401     -0.427416     -0.116600
O             0.057876     -0.426534     -0.163136
O             0.440570      0.418743      0.099278
Fe            0.151543     -0.252986     -0.280682
Fe            0.356785     -0.077130      0.479980
Fe           -0.139818     -0.082906      0.271441
Fe           -0.345247     -0.238645     -0.470665
H            -0.079990     -0.248992     -0.453910
H            -0.421803     -0.083419      0.302991
H             0.068086     -0.072316      0.446611
H             0.426064     -0.259693     -0.300733
O            -0.179147     -0.246547      0.401806
O            -0.311276     -0.082436     -0.332041
O             0.199133     -0.092207     -0.404161
O             0.297248     -0.252929      0.354555
O            -0.053833     -0.245765     -0.354397
O            -0.453955     -0.092152      0.400726
O             0.046436     -0.076835      0.344410
O             0.450545     -0.253866     -0.402995
Fe            0.141958      0.072682     -0.268589
Fe            0.345909      0.238816      0.464331
Fe           -0.144056      0.258315      0.264362
Fe           -0.350125      0.090553     -0.485252
H            -0.084011      0.073734     -0.449386
H            -0.420548      0.277352      0.293849
H             0.064173      0.233923      0.459509
H             0.422295      0.097133     -0.297168
O            -0.197428      0.087397      0.396255
O            -0.306861      0.251216     -0.345334
O             0.193831      0.242759     -0.395681
O             0.304443      0.070600      0.334695
O            -0.051607      0.093475     -0.350012
O            -0.444832      0.257348      0.397212
O             0.050301      0.258260      0.364080
O             0.438879      0.074042     -0.398859
Ni            0.148795      0.421085     -0.287485
Fe            0.367202     -0.414825      0.474794
Fe           -0.144382     -0.414225      0.280416
Fe           -0.360139      0.424175     -0.466632
H            -0.077909      0.411270     -0.465756
H            -0.404747     -0.427211      0.293601
H             0.063894     -0.420090      0.449997
H             0.412731      0.424065     -0.306388
O            -0.191985      0.422571      0.395309
O            -0.296921     -0.417032     -0.350415
O             0.201392     -0.413593     -0.410296
O             0.314453      0.421616      0.340423
O            -0.039319      0.407455     -0.368235
O            -0.450201     -0.408260      0.388074
O             0.061963     -0.412858      0.347029
O             0.440654      0.422446     -0.409007
H             0.177460     -0.329256      0.149383
H             0.036085     -0.234690      0.126595
H             0.212104     -0.132343      0.198864
data_nwchem_pspw

_audit_creation_date   Wed Mar  1 20:30:02 2023
_audit_creation_method    generated by PSPW module of NWChem


_cell_length_a            10.0667
_cell_length_b             9.1552
_cell_length_c             9.2041
_cell_angle_alpha         90.0000
_cell_angle_beta          90.0000
_cell_angle_gamma         90.0000

_symmetry_space_group_name_H-M     P1  

loop_
_atom_site_type_symbol
_atom_site_fract_x
_atom_site_fract_y
_atom_site_fract_z
H             0.191704     -0.268131      0.368993
Fe            0.371140     -0.092955     -0.034098
Fe           -0.140078     -0.082088     -0.229567
Fe           -0.342547     -0.244090      0.036248
H            -0.102541     -0.251687     -0.020561
H            -0.400200     -0.081743     -0.192150
H             0.094586     -0.072257     -0.056824
H             0.426657     -0.297413      0.190880
O            -0.176200     -0.252988     -0.092379
O            -0.295985     -0.075738      0.162997
O             0.194239     -0.079736      0.087706
O             0.308342     -0.238080     -0.168322
O            -0.055950     -0.240878      0.138865
O            -0.434404     -0.083809     -0.091308
O             0.058823     -0.074910     -0.154927
O             0.451327     -0.258415      0.096712
Fe            0.148586      0.094105      0.215952
Fe            0.353768      0.253064     -0.008849
Fe           -0.152035      0.244576     -0.220531
Fe           -0.356372      0.083728      0.028891
H            -0.098876      0.092280      0.049797
H            -0.412427      0.251245     -0.205443
H             0.111002      0.276679     -0.057586
H             0.417911      0.061010      0.194819
O            -0.186256      0.087885     -0.077295
O            -0.319012      0.253639      0.157158
O             0.191278      0.261080      0.091163
O             0.299995      0.086298     -0.138644
O            -0.064692      0.095064      0.154668
O            -0.446343      0.249377     -0.100499
O             0.066093      0.264081     -0.150071
O             0.448135      0.073081      0.093703
Fe            0.136999      0.416060      0.226505
Fe            0.372547     -0.416367     -0.074882
Fe           -0.133551     -0.422198     -0.232672
Fe           -0.350312      0.420056      0.012152
H            -0.087877      0.419521      0.051684
H            -0.385893     -0.409253     -0.198453
H             0.089304     -0.422230     -0.052944
H             0.413199      0.414814      0.190407
O            -0.189858      0.406713     -0.094056
O            -0.313358     -0.420029      0.158527
O             0.202064     -0.419366      0.092609
O             0.309435      0.413040     -0.170863
O            -0.061481      0.421630      0.153111
O            -0.432475     -0.401245     -0.108015
O             0.053714     -0.411956     -0.149529
O             0.451359      0.419064      0.096058
Fe            0.140419     -0.238540     -0.276779
Fe            0.342751     -0.082968      0.478677
Fe           -0.128431     -0.083414      0.276435
Fe           -0.359289     -0.248791     -0.467012
H            -0.086315     -0.246655     -0.453919
H            -0.408296     -0.092834      0.302201
H             0.091110     -0.076751      0.450003
H             0.418043     -0.227015     -0.302857
O            -0.207113     -0.246195      0.393643
O            -0.317032     -0.085953     -0.328016
O             0.187308     -0.066859     -0.398763
O             0.286097     -0.259060      0.350858
O            -0.060155     -0.257172     -0.356304
O            -0.449868     -0.086501      0.395348
O             0.051004     -0.061011      0.357133
O             0.437646     -0.259194     -0.399613
Fe            0.143799      0.099281     -0.270299
Fe            0.364569      0.244605      0.471421
Fe           -0.159445      0.244485      0.283981
Fe           -0.366954      0.071688     -0.469877
H            -0.098951      0.091851     -0.438283
H            -0.420573      0.250034      0.292227
H             0.110655      0.243708      0.446535
H             0.411259      0.067954     -0.291812
O            -0.202215      0.070749      0.412223
O            -0.317642      0.238375     -0.337901
O             0.184075      0.247672     -0.428914
O             0.307693      0.075252      0.342382
O            -0.062204      0.087785     -0.342759
O            -0.451723      0.242451      0.395007
O             0.054832      0.253106      0.353577
O             0.446253      0.072584     -0.390774
Ni            0.134688      0.416791     -0.283761
Fe            0.351624     -0.432700      0.483742
Fe           -0.141702     -0.412856      0.275311
Fe           -0.358779      0.415731     -0.465936
H            -0.089072      0.401740     -0.455360
H            -0.432888     -0.422087      0.309069
H             0.069489     -0.442081      0.460833
H             0.406505      0.402202     -0.288231
O            -0.191947      0.415223      0.415819
O            -0.306251     -0.424772     -0.333609
O             0.191534     -0.426161     -0.395127
O             0.295281      0.407754      0.343778
O            -0.055757      0.403553     -0.353001
O            -0.453493     -0.421659      0.408825
O             0.051514     -0.413929      0.359625
O             0.444698      0.403212     -0.397345
H             0.214656     -0.347267      0.165756
H             0.037530     -0.253589      0.135975
H             0.195148     -0.132595      0.176983
data_nwchem_pspw

_audit_creation_date   Wed Mar  1 23:29:55 2023
_audit_creation_method    generated by PSPW module of NWChem


_cell_length_a            10.0667
_cell_length_b             9.1552
_cell_length_c             9.2041
_cell_angle_alpha         90.0000
_cell_angle_beta          90.0000
_cell_angle_gamma         90.0000

_symmetry_space_group_name_H-M     P1  

loop_
_atom_site_type_symbol
_atom_site_fract_x
_atom_site_fract_y
_atom_site_fract_z
H             0.189666     -0.227789      0.347161
Fe            0.364383     -0.083157     -0.034728
Fe           -0.150435     -0.080742     -0.232871
Fe           -0.363757     -0.261379      0.025104
H            -0.122040     -0.265281     -0.004292
H            -0.418286     -0.089029     -0.213612
H             0.100633     -0.077266     -0.046617
H             0.408288     -0.243418      0.199674
O            -0.193620     -0.249028     -0.082283
O            -0.298936     -0.098183      0.144529
O             0.197983     -0.078235      0.089897
O             0.304175     -0.252613     -0.162155
O            -0.056270     -0.267734      0.136531
O            -0.435536     -0.077905     -0.109665
O             0.060901     -0.089037     -0.142759
O             0.434285     -0.234976      0.098976
Fe            0.147859      0.081252      0.228236
Fe            0.368763      0.249711     -0.026713
Fe           -0.143425      0.258725     -0.216107
Fe           -0.336510      0.078150      0.031934
H            -0.072907      0.067683      0.043592
H            -0.401304      0.236981     -0.195682
H             0.098311      0.245204     -0.042522
H             0.426399      0.085105      0.213334
O            -0.185668      0.087774     -0.098848
O            -0.300340      0.250927      0.164661
O             0.201630      0.249497      0.091886
O             0.315576      0.086376     -0.157991
O            -0.056650      0.059396      0.146717
O            -0.426750      0.239827     -0.092206
O             0.064885      0.253685     -0.142489
O             0.458057      0.068853      0.110742
Fe            0.137118      0.409383      0.216628
Fe            0.354829     -0.405439     -0.031115
Fe           -0.146755     -0.409379     -0.233357
Fe           -0.348323      0.408354      0.032256
H            -0.087993      0.427466      0.037409
H            -0.415642     -0.429483     -0.193636
H             0.091606     -0.415951     -0.064425
H             0.396420      0.408304      0.192084
O            -0.210584      0.421632     -0.104701
O            -0.311409     -0.414399      0.160385
O             0.191241     -0.412577      0.104409
O             0.301475      0.429552     -0.156152
O            -0.061381      0.412295      0.138080
O            -0.453394     -0.422954     -0.091064
O             0.059912     -0.420929     -0.159953
O             0.437201      0.396531      0.092464
Fe            0.138207     -0.253847     -0.273227
Fe            0.356775     -0.065423      0.470844
Fe           -0.131206     -0.110411      0.271057
Fe           -0.360117     -0.247681     -0.467165
H            -0.072292     -0.256309     -0.458464
H            -0.406188     -0.085781      0.288116
H             0.081755     -0.066630      0.454845
H             0.401778     -0.255621     -0.314752
O            -0.190369     -0.253907      0.412158
O            -0.316535     -0.065650     -0.337993
O             0.190253     -0.086835     -0.404518
O             0.285658     -0.242543      0.343194
O            -0.062429     -0.245569     -0.361153
O            -0.446434     -0.080620      0.385239
O             0.064427     -0.088652      0.354977
O             0.436848     -0.238923     -0.412831
Fe            0.149184      0.087578     -0.273206
Fe            0.347438      0.262470      0.473572
Fe           -0.147183      0.239665      0.281032
Fe           -0.352900      0.087492     -0.477882
H            -0.082931      0.068043     -0.446264
H            -0.424639      0.255030      0.289060
H             0.087288      0.259982      0.456381
H             0.410756      0.089452     -0.297849
O            -0.186520      0.071381      0.410612
O            -0.299211      0.251047     -0.348479
O             0.189374      0.264373     -0.395114
O             0.300839      0.100735      0.342503
O            -0.046206      0.079090     -0.349557
O            -0.445585      0.253419      0.400522
O             0.061650      0.243771      0.346650
O             0.451032      0.093210     -0.395604
Ni            0.138251      0.413995     -0.268423
Fe            0.344089     -0.410220      0.468571
Fe           -0.139485     -0.425024      0.279653
Fe           -0.363271      0.412830     -0.468236
H            -0.091270      0.409222     -0.447651
H            -0.414674     -0.388677      0.302766
H             0.071905     -0.418743      0.451737
H             0.386712      0.458845     -0.297774
O            -0.200881      0.409752      0.408685
O            -0.328607     -0.407247     -0.333827
O             0.200453     -0.411490     -0.400548
O             0.312489      0.424342      0.338826
O            -0.058425      0.415367     -0.346418
O            -0.457993     -0.406553      0.394692
O             0.051104     -0.430478      0.350045
O             0.422520      0.427128     -0.393712
H             0.207751     -0.347202      0.183364
H             0.033223     -0.299434      0.134205
H             0.165792     -0.163322      0.132972
data_nwchem_pspw

_audit_creation_date   Thu Mar  2 02:26:37 2023
_audit_creation_method    generated by PSPW module of NWChem


_cell_length_a            10.0667
_cell_length_b             9.1552
_cell_length_c             9.2041
_cell_angle_alpha         90.0000
_cell_angle_beta          90.0000
_cell_angle_gamma         90.0000

_symmetry_space_group_name_H-M     P1  

loop_
_atom_site_type_symbol
_atom_site_fract_x
_atom_site_fract_y
_atom_site_fract_z
H             0.189331     -0.275462      0.375489
Fe            0.355738     -0.079230     -0.042358
Fe           -0.143837     -0.080019     -0.243084
Fe           -0.352471     -0.241332      0.041238
H            -0.112532     -0.245641     -0.005890
H            -0.413132     -0.079205     -0.195183
H             0.088263     -0.103552     -0.048557
H             0.407535     -0.207235      0.178963
O            -0.182696     -0.237347     -0.091014
O            -0.309014     -0.071845      0.171916
O             0.204034     -0.084354      0.094779
O             0.308019     -0.248323     -0.163094
O            -0.055395     -0.265105      0.131938
O            -0.448949     -0.082270     -0.100139
O             0.055731     -0.082968     -0.143881
O             0.446226     -0.247392      0.093321
Fe            0.133747      0.077721      0.234469
Fe            0.356135      0.246809     -0.012290
Fe           -0.132820      0.262095     -0.205095
Fe           -0.340875      0.098378      0.023014
H            -0.082167      0.064800      0.045978
H            -0.404849      0.283365     -0.195923
H             0.101278      0.238115     -0.049908
H             0.409008      0.095257      0.204363
O            -0.186531      0.079374     -0.097510
O            -0.303834      0.259517      0.149827
O             0.193444      0.246821      0.107429
O             0.306536      0.098420     -0.160260
O            -0.046854      0.065928      0.147123
O            -0.446518      0.256681     -0.103854
O             0.058173      0.232628     -0.148677
O             0.458069      0.098893      0.115117
Fe            0.138985      0.425540      0.226871
Fe            0.361682     -0.414452     -0.035256
Fe           -0.155362     -0.404261     -0.232892
Fe           -0.356589      0.419094      0.023650
H            -0.079426      0.407614      0.044730
H            -0.417108     -0.431237     -0.199282
H             0.088666     -0.425343     -0.045073
H             0.402652      0.419001      0.195553
O            -0.206565      0.429370     -0.102621
O            -0.299529     -0.409955      0.141692
O             0.206811     -0.406587      0.106289
O             0.302971      0.410878     -0.153451
O            -0.054907      0.405919      0.144799
O            -0.446373     -0.397615     -0.094228
O             0.059876     -0.423531     -0.145311
O             0.442702      0.433939      0.098116
Fe            0.136572     -0.258885     -0.272553
Fe            0.364667     -0.080426      0.484171
Fe           -0.140583     -0.095955      0.293157
Fe           -0.360368     -0.256136     -0.487558
H            -0.086462     -0.253425     -0.481387
H            -0.413479     -0.056702      0.305845
H             0.095000     -0.088800      0.441432
H             0.398582     -0.273346     -0.311948
O            -0.203139     -0.256045      0.403147
O            -0.320157     -0.082684     -0.344669
O             0.204092     -0.097511     -0.401782
O             0.285194     -0.270398      0.366475
O            -0.048634     -0.235186     -0.379195
O            -0.450405     -0.084555      0.400438
O             0.050813     -0.078953      0.346736
O             0.438896     -0.251668     -0.402905
Fe            0.144303      0.067691     -0.297204
Fe            0.353842      0.242333      0.467304
Fe           -0.144541      0.254728      0.274720
Fe           -0.351754      0.090134     -0.459262
H            -0.099427      0.100377     -0.442866
H            -0.426247      0.267082      0.287577
H             0.106604      0.264039      0.460032
H             0.401888      0.102160     -0.293465
O            -0.197636      0.073112      0.407727
O            -0.299672      0.263561     -0.340698
O             0.181293      0.251330     -0.407487
O             0.298112      0.078157      0.343927
O            -0.061282      0.093074     -0.348014
O            -0.448821      0.247420      0.392205
O             0.059577      0.264716      0.359788
O             0.437324      0.082344     -0.395613
Ni            0.145719      0.401523     -0.261122
Fe            0.349898     -0.441352      0.468426
Fe           -0.145091     -0.421145      0.260765
Fe           -0.354698      0.419577     -0.475011
H            -0.075603      0.400946     -0.442263
H            -0.417011     -0.403859      0.288874
H             0.078421     -0.428843      0.450836
H             0.400457      0.412433     -0.308621
O            -0.202242      0.427810      0.400146
O            -0.318703     -0.403773     -0.344470
O             0.192619     -0.440167     -0.384172
O             0.317972      0.409627      0.331624
O            -0.050671      0.411716     -0.342824
O            -0.442548     -0.425032      0.388726
O             0.053136     -0.419175      0.350500
O             0.432938      0.406918     -0.405664
H             0.237093     -0.344772      0.185384
H             0.035510     -0.244470      0.141547
H             0.168262     -0.176609      0.119751
data_nwchem_pspw

_audit_creation_date   Thu Mar  2 05:28:30 2023
_audit_creation_method    generated by PSPW module of NWChem


_cell_length_a            10.0667
_cell_length_b             9.1552
_cell_length_c             9.2041
_cell_angle_alpha         90.0000
_cell_angle_beta          90.0000
_cell_angle_gamma         90.0000

_symmetry_space_group_name_H-M     P1  

loop_
_atom_site_type_symbol
_atom_site_fract_x
_atom_site_fract_y
_atom_site_fract_z
H             0.188996     -0.250710      0.354275
Fe            0.367341     -0.095017     -0.032442
Fe           -0.129853     -0.073503     -0.224185
Fe           -0.354623     -0.253409      0.028493
H            -0.100758     -0.226478     -0.016241
H            -0.403533     -0.099441     -0.210548
H             0.103021     -0.077604     -0.057304
H             0.391238     -0.251031      0.188358
O            -0.177470     -0.231384     -0.085258
O            -0.313763     -0.099672      0.167607
O             0.200592     -0.075276      0.089586
O             0.307572     -0.254672     -0.149557
O            -0.048608     -0.240542      0.141409
O            -0.445805     -0.105186     -0.114625
O             0.062080     -0.084316     -0.152947
O             0.438236     -0.259469      0.097392
Fe            0.151109      0.086664      0.235347
Fe            0.353038      0.246661     -0.039950
Fe           -0.150515      0.252674     -0.222114
Fe           -0.353081      0.074979      0.040049
H            -0.104338      0.063915      0.055542
H            -0.426150      0.239344     -0.209919
H             0.078390      0.251221     -0.046443
H             0.437531      0.089964      0.202533
O            -0.197715      0.084299     -0.089333
O            -0.307184      0.236350      0.169121
O             0.184638      0.251224      0.088826
O             0.303689      0.080883     -0.148965
O            -0.061593      0.082623      0.149728
O            -0.448379      0.236432     -0.107372
O             0.052824      0.254847     -0.154310
O             0.450321      0.091052      0.097915
Fe            0.138160      0.408179      0.230009
Fe            0.354557     -0.426857     -0.035353
Fe           -0.150508     -0.407172     -0.222527
Fe           -0.366004      0.403530      0.017328
H            -0.098311      0.403147      0.048320
H            -0.393454     -0.419663     -0.214983
H             0.064536     -0.391576     -0.053890
H             0.402155      0.409426      0.192151
O            -0.197985      0.411617     -0.084601
O            -0.303020     -0.429554      0.144935
O             0.191306     -0.413415      0.097977
O             0.289768      0.417263     -0.166818
O            -0.063636      0.411937      0.148227
O            -0.445688     -0.423713     -0.109409
O             0.044866     -0.411682     -0.154969
O             0.434241      0.399790      0.094160
Fe            0.150228     -0.248480     -0.276367
Fe            0.354763     -0.079762      0.470274
Fe           -0.134283     -0.093823      0.283649
Fe           -0.357586     -0.234576     -0.474491
H            -0.088681     -0.234966     -0.448276
H            -0.398127     -0.082015      0.303212
H             0.081089     -0.063758      0.449687
H             0.423740     -0.241110     -0.302798
O            -0.197566     -0.266328      0.402705
O            -0.296666     -0.087468     -0.336207
O             0.196402     -0.078420     -0.420313
O             0.284877     -0.261151      0.345422
O            -0.040726     -0.236879     -0.358954
O            -0.442943     -0.079050      0.398493
O             0.050225     -0.072053      0.350240
O             0.442777     -0.239937     -0.403707
Fe            0.152683      0.088670     -0.277246
Fe            0.362444      0.255046      0.477596
Fe           -0.141321      0.247266      0.281112
Fe           -0.352861      0.089682     -0.466238
H            -0.085421      0.082504     -0.439338
H            -0.409284      0.250897      0.310074
H             0.086679      0.215391      0.451435
H             0.417025      0.076787     -0.304256
O            -0.194622      0.077577      0.409274
O            -0.300317      0.260712     -0.340852
O             0.190212      0.260674     -0.413092
O             0.310628      0.094383      0.341399
O            -0.046996      0.094764     -0.345410
O            -0.439573      0.264324      0.408603
O             0.053714      0.241671      0.355450
O             0.446993      0.082306     -0.403703
Ni            0.133980      0.408129     -0.283877
Fe            0.340859     -0.423004      0.477683
Fe           -0.141174     -0.419512      0.256097
Fe           -0.347538      0.439300     -0.472856
H            -0.105292      0.422154     -0.450556
H            -0.434223     -0.415494      0.303681
H             0.048837     -0.442196      0.454002
H             0.391741      0.428426     -0.297362
O            -0.188889      0.422041      0.414436
O            -0.321866     -0.405435     -0.325956
O             0.182909     -0.434953     -0.399476
O             0.311345      0.407944      0.342879
O            -0.059960      0.423729     -0.353278
O            -0.460495     -0.410700      0.405070
O             0.045244     -0.433881      0.351167
O             0.439926      0.432789     -0.392436
H             0.209851     -0.354642      0.181020
H             0.035505     -0.278223      0.171569
H             0.186551     -0.147431      0.163904
data_nwchem_pspw

_audit_creation_date   Thu Mar  2 08:31:54 2023
_audit_creation_method    generated by PSPW module of NWChem


_cell_length_a            10.0667
_cell_length_b             9.1552
_cell_length_c             9.2041
_cell_angle_alpha         90.0000
_cell_angle_beta          90.0000
_cell_angle_gamma         90.0000

_symmetry_space_group_name_H-M     P1  

loop_
_atom_site_type_symbol
_atom_site_fract_x
_atom_site_fract_y
_atom_site_fract_z
H             0.207115     -0.284291      0.367736
Fe            0.365862     -0.070184     -0.031380
Fe           -0.146329     -0.087403     -0.220838
Fe           -0.373715     -0.253428      0.042901
H            -0.139535     -0.253620      0.001148
H            -0.409700     -0.076063     -0.188913
H             0.087261     -0.094162     -0.049265
H             0.383733     -0.269749      0.186971
O            -0.196099     -0.253048     -0.087503
O            -0.301580     -0.093076      0.147067
O             0.192515     -0.081458      0.086907
O             0.303783     -0.228271     -0.159641
O            -0.062042     -0.243558      0.131570
O            -0.438743     -0.078404     -0.096339
O             0.067168     -0.083560     -0.151686
O             0.427024     -0.249570      0.094550
Fe            0.131689      0.097682      0.238268
Fe            0.359204      0.256565     -0.014705
Fe           -0.136698      0.260226     -0.224981
Fe           -0.347229      0.076945      0.024378
H            -0.112294      0.068526      0.027431
H            -0.425993      0.271080     -0.204734
H             0.084167      0.256337     -0.028008
H             0.400423      0.084587      0.197535
O            -0.186606      0.072418     -0.086719
O            -0.318092      0.252455      0.150507
O             0.192736      0.249048      0.093244
O             0.302460      0.097445     -0.148111
O            -0.067095      0.087958      0.143286
O            -0.450635      0.259917     -0.102022
O             0.052207      0.267329     -0.128770
O             0.454160      0.079363      0.107220
Fe            0.149424      0.403710      0.220495
Fe            0.353540     -0.403148     -0.057329
Fe           -0.129586     -0.428034     -0.222833
Fe           -0.363300      0.414768      0.022725
H            -0.119295      0.409929      0.055453
H            -0.406469     -0.399279     -0.214047
H             0.087011     -0.435595     -0.058394
H             0.414232      0.414488      0.186954
O            -0.193845      0.409845     -0.077226
O            -0.315341     -0.414918      0.164847
O             0.189859     -0.426061      0.073506
O             0.304311      0.419253     -0.159918
O            -0.060782      0.414015      0.148478
O            -0.450022     -0.415722     -0.113498
O             0.058503     -0.416159     -0.157450
O             0.427157      0.433959      0.086884
Fe            0.149221     -0.248884     -0.286568
Fe            0.360150     -0.091555      0.464485
Fe           -0.131034     -0.080645      0.273653
Fe           -0.347034     -0.252343     -0.481202
H            -0.058599     -0.235224     -0.445104
H            -0.403881     -0.097951      0.301862
H             0.107317     -0.073927      0.448238
H             0.401299     -0.247074     -0.303161
O            -0.191048     -0.242831      0.403553
O            -0.306228     -0.088901     -0.337387
O             0.197961     -0.085808     -0.413079
O             0.300807     -0.263543      0.352604
O            -0.052189     -0.250409     -0.344475
O            -0.446664     -0.097471      0.395153
O             0.061211     -0.065124      0.354981
O             0.441824     -0.257038     -0.395416
Fe            0.147502      0.083419     -0.280437
Fe            0.346197      0.242917      0.470996
Fe           -0.166480      0.258536      0.274748
Fe           -0.358271      0.074890     -0.477463
H            -0.088225      0.069441     -0.450109
H            -0.419019      0.239998      0.311290
H             0.082028      0.274211      0.461224
H             0.415720      0.102527     -0.297836
O            -0.198638      0.096066      0.401833
O            -0.298674      0.250291     -0.342431
O             0.192116      0.258672     -0.395973
O             0.304268      0.078300      0.343032
O            -0.057489      0.069860     -0.349210
O            -0.458816      0.234699      0.404176
O             0.042212      0.261521      0.361257
O             0.440734      0.086677     -0.398227
Ni            0.143190      0.421079     -0.277803
Fe            0.364316     -0.429014      0.479814
Fe           -0.134465     -0.417031      0.281432
Fe           -0.359561      0.415998     -0.456396
H            -0.095528      0.416821     -0.458497
H            -0.412938     -0.437464      0.295727
H             0.076296     -0.447106      0.442199
H             0.408567      0.395222     -0.291155
O            -0.194518      0.419695      0.417352
O            -0.304672     -0.414995     -0.341027
O             0.199480     -0.424178     -0.393054
O             0.297716      0.404980      0.349781
O            -0.057074      0.406440     -0.355965
O            -0.445612     -0.437355      0.401174
O             0.078150     -0.404069      0.346638
O             0.447281      0.398736     -0.394570
H             0.196449     -0.355428      0.151513
H             0.030523     -0.251941      0.148830
H             0.215787     -0.142277      0.166012
data_nwchem_pspw

_audit_creation_date   Thu Mar  2 11:27:24 2023
_audit_creation_method    generated by PSPW module of NWChem


_cell_length_a            10.0667
_cell_length_b             9.1552
_cell_length_c             9.2041
_cell_angle_alpha         90.0000
_cell_angle_beta          90.0000
_cell_angle_gamma         90.0000

_symmetry_space_group_name_H-M     P1  

loop_
_atom_site_type_symbol
_atom_site_fract_x
_atom_site_fract_y
_atom_site_fract_z
H             0.194765     -0.230138      0.364841
Fe            0.363143     -0.078073     -0.039311
Fe           -0.144303     -0.088835     -0.249766
Fe           -0.363263     -0.257884      0.020029
H            -0.128311     -0.265585      0.008498
H            -0.400194     -0.075436     -0.200077
H             0.075173     -0.105642     -0.056831
H             0.406867     -0.243600      0.204381
O            -0.189176     -0.259413     -0.086567
O            -0.305621     -0.093515      0.152015
O             0.197807     -0.092308      0.100253
O             0.289428     -0.239593     -0.148283
O            -0.072096     -0.265189      0.150481
O            -0.439416     -0.085238     -0.110366
O             0.055376     -0.070447     -0.152404
O             0.443487     -0.242304      0.106397
Fe            0.143203      0.080778      0.220010
Fe            0.353573      0.255390     -0.023499
Fe           -0.156122      0.239136     -0.212939
Fe           -0.353647      0.087167      0.031773
H            -0.104890      0.049749      0.049007
H            -0.425809      0.246522     -0.202078
H             0.093200      0.252152     -0.056673
H             0.406174      0.083125      0.198094
O            -0.196677      0.074847     -0.096503
O            -0.308838      0.247910      0.163416
O             0.185323      0.244897      0.086019
O             0.306115      0.096162     -0.148735
O            -0.058389      0.069406      0.142819
O            -0.444344      0.248133     -0.098049
O             0.054819      0.261200     -0.153119
O             0.443869      0.087976      0.097642
Fe            0.141666      0.417572      0.244199
Fe            0.358744     -0.418280     -0.045610
Fe           -0.132867     -0.426148     -0.230841
Fe           -0.347370      0.412279      0.022206
H            -0.084134      0.412000      0.060336
H            -0.420238     -0.406887     -0.203785
H             0.105223     -0.402741     -0.051489
H             0.386740      0.413758      0.194103
O            -0.176964      0.419241     -0.087554
O            -0.311327     -0.424151      0.149991
O             0.197640     -0.430452      0.093563
O             0.309590      0.415364     -0.164823
O            -0.056712      0.412640      0.165078
O            -0.451998     -0.423533     -0.108103
O             0.067040     -0.423475     -0.144919
O             0.444374      0.415012      0.103677
Fe            0.150593     -0.245205     -0.282875
Fe            0.359578     -0.069628      0.473356
Fe           -0.136124     -0.094729      0.271649
Fe           -0.356062     -0.239559     -0.465511
H            -0.080076     -0.257294     -0.463402
H            -0.413169     -0.089595      0.283284
H             0.096240     -0.062481      0.457128
H             0.400500     -0.272119     -0.317789
O            -0.197733     -0.248565      0.410697
O            -0.304959     -0.077551     -0.352690
O             0.208941     -0.068725     -0.401577
O             0.288117     -0.256662      0.347967
O            -0.048388     -0.257308     -0.360989
O            -0.448502     -0.091165      0.387381
O             0.061262     -0.090071      0.362421
O             0.436947     -0.248187     -0.406270
Fe            0.136186      0.095061     -0.271671
Fe            0.361449      0.264623      0.479680
Fe           -0.141720      0.233580      0.279035
Fe           -0.355918      0.085749     -0.480665
H            -0.073282      0.078027     -0.461889
H            -0.424219      0.251098      0.286722
H             0.091314      0.210314      0.459116
H             0.418919      0.089200     -0.301268
O            -0.205222      0.071734      0.395601
O            -0.307322      0.259507     -0.340973
O             0.190332      0.264379     -0.410343
O             0.304539      0.090080      0.340636
O            -0.056099      0.079079     -0.352352
O            -0.456926      0.254099      0.389381
O             0.051527      0.226134      0.362196
O             0.452373      0.087741     -0.400072
Ni            0.134541      0.429894     -0.274441
Fe            0.365548     -0.419640      0.472161
Fe           -0.154562     -0.433326      0.291142
Fe           -0.351692      0.437416     -0.459797
H            -0.067676      0.392642     -0.454322
H            -0.409969     -0.430888      0.293809
H             0.076363     -0.408379      0.445869
H             0.391517      0.419980     -0.286032
O            -0.208123      0.404893      0.411038
O            -0.312057     -0.402847     -0.324784
O             0.193558     -0.416036     -0.393673
O             0.306192      0.416409      0.342512
O            -0.047408      0.401774     -0.352151
O            -0.444370     -0.409341      0.385701
O             0.042206     -0.435696      0.350949
O             0.440765      0.424104     -0.393579
H             0.233788     -0.360865      0.161865
H             0.020076     -0.266056      0.168986
H             0.208199     -0.170981      0.167096
data_nwchem_pspw

_audit_creation_date   Thu Mar  2 14:30:22 2023
_audit_creation_method    generated by PSPW module of NWChem


_cell_length_a            10.0667
_cell_length_b             9.1552
_cell_length_c             9.2041
_cell_angle_alpha         90.0000
_cell_angle_beta          90.0000
_cell_angle_gamma         90.0000

_symmetry_space_group_name_H-M     P1  

loop_
_atom_site_type_symbol
_atom_site_fract_x
_atom_site_fract_y
_atom_site_fract_z
H             0.205483     -0.265534      0.367132
Fe            0.367413     -0.076922     -0.064737
Fe           -0.149019     -0.079319     -0.230784
Fe           -0.356158     -0.248330      0.030871
H            -0.119018     -0.267464      0.002577
H            -0.407159     -0.072091     -0.213789
H             0.117708     -0.060803     -0.055639
H             0.399845     -0.208152      0.200074
O            -0.185535     -0.243966     -0.088521
O            -0.312779     -0.079833      0.157799
O             0.198598     -0.084684      0.077442
O             0.304986     -0.248558     -0.166439
O            -0.063025     -0.271392      0.134786
O            -0.438856     -0.085229     -0.111614
O             0.068314     -0.073363     -0.148064
O             0.435724     -0.228569      0.105304
Fe            0.132637      0.065122      0.212262
Fe            0.358002      0.260957     -0.024944
Fe           -0.143168      0.245646     -0.210733
Fe           -0.358458      0.101735      0.040552
H            -0.084672      0.064873      0.042552
H            -0.399009      0.242996     -0.209751
H             0.101854      0.252920     -0.037888
H             0.392324      0.083793      0.181015
O            -0.201309      0.086132     -0.095134
O            -0.301974      0.250916      0.167490
O             0.183299      0.239178      0.085191
O             0.300016      0.091466     -0.157425
O            -0.058456      0.064401      0.146891
O            -0.438048      0.250275     -0.108151
O             0.057200      0.275326     -0.142672
O             0.438810      0.090106      0.086675
Fe            0.154429      0.414275      0.227477
Fe            0.363752     -0.405501     -0.024184
Fe           -0.134713     -0.411808     -0.234406
Fe           -0.351207      0.422179      0.024464
H            -0.071824      0.403186      0.054707
H            -0.377613     -0.415517     -0.244527
H             0.073085     -0.419168     -0.034205
H             0.395733      0.433334      0.200893
O            -0.189196      0.418325     -0.086703
O            -0.296197     -0.422946      0.160217
O             0.198273     -0.402521      0.099797
O             0.309746      0.428552     -0.161073
O            -0.043742      0.409725      0.154403
O            -0.444969     -0.413520     -0.080676
O             0.073206     -0.416538     -0.138536
O             0.438965      0.412078      0.099819
Fe            0.136260     -0.253123     -0.284049
Fe            0.341644     -0.080049      0.479445
Fe           -0.148422     -0.095699      0.271711
Fe           -0.365293     -0.251592     -0.486909
H            -0.082290     -0.260375     -0.455885
H            -0.443455     -0.082051      0.290984
H             0.066169     -0.070514      0.435700
H             0.406555     -0.247518     -0.293126
O            -0.197191     -0.255331      0.404914
O            -0.313489     -0.088006     -0.342335
O             0.195502     -0.079852     -0.381026
O             0.302673     -0.251428      0.357748
O            -0.049586     -0.229495     -0.358746
O            -0.453922     -0.081323      0.399504
O             0.057618     -0.085009      0.332304
O             0.446918     -0.259619     -0.393410
Fe            0.136525      0.091989     -0.267827
Fe            0.348848      0.254689      0.466258
Fe           -0.140957      0.233587      0.286561
Fe           -0.365181      0.076956     -0.462259
H            -0.099776      0.072497     -0.454652
H            -0.414348      0.218541      0.307449
H             0.074597      0.265622      0.456399
H             0.403880      0.110399     -0.300903
O            -0.196139      0.057217      0.408870
O            -0.306524      0.241714     -0.340928
O             0.192616      0.258983     -0.406526
O             0.300451      0.080286      0.333463
O            -0.058666      0.083131     -0.352831
O            -0.452778      0.241118      0.407132
O             0.052003      0.246681      0.349526
O             0.437304      0.097346     -0.401580
Ni            0.142659      0.411533     -0.262853
Fe            0.363032     -0.411826      0.488888
Fe           -0.133893     -0.426448      0.279989
Fe           -0.349166      0.402635     -0.486941
H            -0.074061      0.419762     -0.455448
H            -0.402179     -0.415049      0.297960
H             0.073402     -0.454277      0.463433
H             0.405313      0.414664     -0.308051
O            -0.191443      0.400731      0.403752
O            -0.321495     -0.422413     -0.341658
O             0.204879     -0.426632     -0.394746
O             0.313180      0.435520      0.347183
O            -0.046387      0.432747     -0.356081
O            -0.442026     -0.422172      0.395336
O             0.051966     -0.430377      0.364105
O             0.446480      0.414991     -0.404794
H             0.243355     -0.356034      0.179143
H             0.028551     -0.255947      0.139450
H             0.195815     -0.184071      0.104991