data_nwchem_pspw

_audit_creation_date   Fri Jan 27 07:21:29 2023
_audit_creation_method    generated by PSPW module of NWChem


_cell_length_a            10.0667
_cell_length_b             9.1552
_cell_length_c             9.2041
_cell_angle_alpha         90.0000
_cell_angle_beta          90.0000
_cell_angle_gamma         90.0000

_symmetry_space_group_name_H-M     P1  

loop_
_atom_site_type_symbol
_atom_site_fract_x
_atom_site_fract_y
_atom_site_fract_z
H             0.146735     -0.250000      0.224756
Fe            0.353175     -0.083327     -0.025375
Fe           -0.146825     -0.083327     -0.224625
Fe           -0.353265     -0.250000      0.025244
H            -0.085221     -0.250000      0.049134
H            -0.414737     -0.083030     -0.201101
H             0.085263     -0.083030     -0.048899
H             0.414779     -0.250000      0.200866
O            -0.196748     -0.250000     -0.095276
O            -0.303195     -0.083277      0.154599
O             0.196805     -0.083277      0.095401
O             0.303252     -0.250000     -0.154724
O            -0.053396     -0.250000      0.148894
O            -0.446594     -0.082953     -0.101355
O             0.053406     -0.082954     -0.148645
O             0.446604     -0.250000      0.101106
Fe            0.146825      0.083327      0.224625
Fe            0.353265      0.250000     -0.025244
Fe           -0.146735      0.250000     -0.224756
Fe           -0.353175      0.083327      0.025375
H            -0.085263      0.083030      0.048899
H            -0.414779      0.250000     -0.200866
H             0.085221      0.250000     -0.049134
H             0.414737      0.083030      0.201101
O            -0.196805      0.083277     -0.095401
O            -0.303252      0.250000      0.154724
O             0.196748      0.250000      0.095276
O             0.303195      0.083277     -0.154599
O            -0.053406      0.082954      0.148645
O            -0.446604      0.250000     -0.101106
O             0.053396      0.250000     -0.148894
O             0.446594      0.082953      0.101355
Fe            0.146825      0.416673      0.224625
Fe            0.353175     -0.416673     -0.025375
Fe           -0.146825     -0.416673     -0.224625
Fe           -0.353175      0.416673      0.025375
H            -0.085263      0.416970      0.048899
H            -0.414737     -0.416970     -0.201101
H             0.085263     -0.416970     -0.048899
H             0.414737      0.416970      0.201101
O            -0.196805      0.416723     -0.095401
O            -0.303195     -0.416723      0.154599
O             0.196805     -0.416723      0.095401
O             0.303195      0.416723     -0.154599
O            -0.053406      0.417047      0.148645
O            -0.446594     -0.417047     -0.101355
O             0.053406     -0.417047     -0.148645
O             0.446594      0.417046      0.101355
Fe            0.146735     -0.250000     -0.275244
Fe            0.353175     -0.083327      0.474625
Fe           -0.146825     -0.083327      0.275375
Fe           -0.353265     -0.250000     -0.474756
H            -0.085221     -0.250000     -0.450866
H            -0.414737     -0.083030      0.298899
H             0.085263     -0.083030      0.451101
H             0.414779     -0.250000     -0.299134
O            -0.196748     -0.250000      0.404724
O            -0.303195     -0.083277     -0.345401
O             0.196805     -0.083277     -0.404599
O             0.303252     -0.250000      0.345276
O            -0.053396     -0.250000     -0.351106
O            -0.446594     -0.082953      0.398645
O             0.053406     -0.082954      0.351355
O             0.446604     -0.250000     -0.398894
Fe            0.146825      0.083327     -0.275375
Fe            0.353265      0.250000      0.474756
Fe           -0.146735      0.250000      0.275244
Fe           -0.353175      0.083327     -0.474625
H            -0.085263      0.083030     -0.451101
H            -0.414779      0.250000      0.299134
H             0.085221      0.250000      0.450866
H             0.414737      0.083030     -0.298899
O            -0.196805      0.083277      0.404599
O            -0.303252      0.250000     -0.345276
O             0.196748      0.250000     -0.404724
O             0.303195      0.083277      0.345401
O            -0.053406      0.082954     -0.351355
O            -0.446604      0.250000      0.398894
O             0.053396      0.250000      0.351106
O             0.446594      0.082953     -0.398645
Fe            0.146825      0.416673     -0.275375
Ni            0.353175     -0.416673      0.474625
Fe           -0.146825     -0.416673      0.275375
Fe           -0.353175      0.416673     -0.474625
H            -0.085263      0.416970     -0.451101
H            -0.414737     -0.416970      0.298899
H             0.085263     -0.416970      0.451101
H             0.414737      0.416970     -0.298899
O            -0.196805      0.416723      0.404599
O            -0.303195     -0.416723     -0.345401
O             0.196805     -0.416723     -0.404599
O             0.303195      0.416723      0.345401
O            -0.053406      0.417047     -0.351355
O            -0.446594     -0.417047      0.398645
O             0.053406     -0.417047      0.351355
O             0.446594      0.417046     -0.398645
H             0.451134     -0.207847      0.346694
H             0.046735     -0.250000      0.214756
H             0.146735     -0.150000      0.234756
data_nwchem_pspw

_audit_creation_date   Fri Jan 27 07:28:40 2023
_audit_creation_method    generated by PSPW module of NWChem


_cell_length_a            10.0667
_cell_length_b             9.1552
_cell_length_c             9.2041
_cell_angle_alpha         90.0000
_cell_angle_beta          90.0000
_cell_angle_gamma         90.0000

_symmetry_space_group_name_H-M     P1  

loop_
_atom_site_type_symbol
_atom_site_fract_x
_atom_site_fract_y
_atom_site_fract_z
H             0.146735     -0.250000      0.224756
Fe            0.353175     -0.083327     -0.025375
Fe           -0.146825     -0.083327     -0.224625
Fe           -0.353265     -0.250000      0.025244
H            -0.085221     -0.250000      0.049134
H            -0.414737     -0.083030     -0.201101
H             0.085263     -0.083030     -0.048899
H             0.414779     -0.250000      0.200866
O            -0.196748     -0.250000     -0.095276
O            -0.303195     -0.083277      0.154599
O             0.196805     -0.083277      0.095401
O             0.303252     -0.250000     -0.154724
O            -0.053396     -0.250000      0.148894
O            -0.446594     -0.082953     -0.101355
O             0.053406     -0.082954     -0.148645
O             0.446604     -0.250000      0.101106
Fe            0.146825      0.083327      0.224625
Fe            0.353265      0.250000     -0.025244
Fe           -0.146735      0.250000     -0.224756
Fe           -0.353175      0.083327      0.025375
H            -0.085263      0.083030      0.048899
H            -0.414779      0.250000     -0.200866
H             0.085221      0.250000     -0.049134
H             0.414737      0.083030      0.201101
O            -0.196805      0.083277     -0.095401
O            -0.303252      0.250000      0.154724
O             0.196748      0.250000      0.095276
O             0.303195      0.083277     -0.154599
O            -0.053406      0.082954      0.148645
O            -0.446604      0.250000     -0.101106
O             0.053396      0.250000     -0.148894
O             0.446594      0.082953      0.101355
Fe            0.146825      0.416673      0.224625
Fe            0.353175     -0.416673     -0.025375
Fe           -0.146825     -0.416673     -0.224625
Fe           -0.353175      0.416673      0.025375
H            -0.085263      0.416970      0.048899
H            -0.414737     -0.416970     -0.201101
H             0.085263     -0.416970     -0.048899
H             0.414737      0.416970      0.201101
O            -0.196805      0.416723     -0.095401
O            -0.303195     -0.416723      0.154599
O             0.196805     -0.416723      0.095401
O             0.303195      0.416723     -0.154599
O            -0.053406      0.417047      0.148645
O            -0.446594     -0.417047     -0.101355
O             0.053406     -0.417047     -0.148645
O             0.446594      0.417046      0.101355
Fe            0.146735     -0.250000     -0.275244
Fe            0.353175     -0.083327      0.474625
Fe           -0.146825     -0.083327      0.275375
Fe           -0.353265     -0.250000     -0.474756
H            -0.085221     -0.250000     -0.450866
H            -0.414737     -0.083030      0.298899
H             0.085263     -0.083030      0.451101
H             0.414779     -0.250000     -0.299134
O            -0.196748     -0.250000      0.404724
O            -0.303195     -0.083277     -0.345401
O             0.196805     -0.083277     -0.404599
O             0.303252     -0.250000      0.345276
O            -0.053396     -0.250000     -0.351106
O            -0.446594     -0.082953      0.398645
O             0.053406     -0.082954      0.351355
O             0.446604     -0.250000     -0.398894
Fe            0.146825      0.083327     -0.275375
Fe            0.353265      0.250000      0.474756
Fe           -0.146735      0.250000      0.275244
Fe           -0.353175      0.083327     -0.474625
H            -0.085263      0.083030     -0.451101
H            -0.414779      0.250000      0.299134
H             0.085221      0.250000      0.450866
H             0.414737      0.083030     -0.298899
O            -0.196805      0.083277      0.404599
O            -0.303252      0.250000     -0.345276
O             0.196748      0.250000     -0.404724
O             0.303195      0.083277      0.345401
O            -0.053406      0.082954     -0.351355
O            -0.446604      0.250000      0.398894
O             0.053396      0.250000      0.351106
O             0.446594      0.082953     -0.398645
Fe            0.146825      0.416673     -0.275375
Ni            0.353175     -0.416673      0.474625
Fe           -0.146825     -0.416673      0.275375
Fe           -0.353175      0.416673     -0.474625
H            -0.085263      0.416970     -0.451101
H            -0.414737     -0.416970      0.298899
H             0.085263     -0.416970      0.451101
H             0.414737      0.416970     -0.298899
O            -0.196805      0.416723      0.404599
O            -0.303195     -0.416723     -0.345401
O             0.196805     -0.416723     -0.404599
O             0.303195      0.416723      0.345401
O            -0.053406      0.417047     -0.351355
O            -0.446594     -0.417047      0.398645
O             0.053406     -0.417047      0.351355
O             0.446594      0.417046     -0.398645
H             0.451134     -0.207847      0.346694
H             0.046735     -0.250000      0.214756
H             0.146735     -0.150000      0.234756
data_nwchem_pspw

_audit_creation_date   Fri Jan 27 07:36:45 2023
_audit_creation_method    generated by PSPW module of NWChem


_cell_length_a            10.0667
_cell_length_b             9.1552
_cell_length_c             9.2041
_cell_angle_alpha         90.0000
_cell_angle_beta          90.0000
_cell_angle_gamma         90.0000

_symmetry_space_group_name_H-M     P1  

loop_
_atom_site_type_symbol
_atom_site_fract_x
_atom_site_fract_y
_atom_site_fract_z
H             0.146735     -0.250000      0.224756
Fe            0.353175     -0.083327     -0.025375
Fe           -0.146825     -0.083327     -0.224625
Fe           -0.353265     -0.250000      0.025244
H            -0.085221     -0.250000      0.049134
H            -0.414737     -0.083030     -0.201101
H             0.085263     -0.083030     -0.048899
H             0.414779     -0.250000      0.200866
O            -0.196748     -0.250000     -0.095276
O            -0.303195     -0.083277      0.154599
O             0.196805     -0.083277      0.095401
O             0.303252     -0.250000     -0.154724
O            -0.053396     -0.250000      0.148894
O            -0.446594     -0.082953     -0.101355
O             0.053406     -0.082954     -0.148645
O             0.446604     -0.250000      0.101106
Fe            0.146825      0.083327      0.224625
Fe            0.353265      0.250000     -0.025244
Fe           -0.146735      0.250000     -0.224756
Fe           -0.353175      0.083327      0.025375
H            -0.085263      0.083030      0.048899
H            -0.414779      0.250000     -0.200866
H             0.085221      0.250000     -0.049134
H             0.414737      0.083030      0.201101
O            -0.196805      0.083277     -0.095401
O            -0.303252      0.250000      0.154724
O             0.196748      0.250000      0.095276
O             0.303195      0.083277     -0.154599
O            -0.053406      0.082954      0.148645
O            -0.446604      0.250000     -0.101106
O             0.053396      0.250000     -0.148894
O             0.446594      0.082953      0.101355
Fe            0.146825      0.416673      0.224625
Fe            0.353175     -0.416673     -0.025375
Fe           -0.146825     -0.416673     -0.224625
Fe           -0.353175      0.416673      0.025375
H            -0.085263      0.416970      0.048899
H            -0.414737     -0.416970     -0.201101
H             0.085263     -0.416970     -0.048899
H             0.414737      0.416970      0.201101
O            -0.196805      0.416723     -0.095401
O            -0.303195     -0.416723      0.154599
O             0.196805     -0.416723      0.095401
O             0.303195      0.416723     -0.154599
O            -0.053406      0.417047      0.148645
O            -0.446594     -0.417047     -0.101355
O             0.053406     -0.417047     -0.148645
O             0.446594      0.417046      0.101355
Fe            0.146735     -0.250000     -0.275244
Fe            0.353175     -0.083327      0.474625
Fe           -0.146825     -0.083327      0.275375
Fe           -0.353265     -0.250000     -0.474756
H            -0.085221     -0.250000     -0.450866
H            -0.414737     -0.083030      0.298899
H             0.085263     -0.083030      0.451101
H             0.414779     -0.250000     -0.299134
O            -0.196748     -0.250000      0.404724
O            -0.303195     -0.083277     -0.345401
O             0.196805     -0.083277     -0.404599
O             0.303252     -0.250000      0.345276
O            -0.053396     -0.250000     -0.351106
O            -0.446594     -0.082953      0.398645
O             0.053406     -0.082954      0.351355
O             0.446604     -0.250000     -0.398894
Fe            0.146825      0.083327     -0.275375
Fe            0.353265      0.250000      0.474756
Fe           -0.146735      0.250000      0.275244
Fe           -0.353175      0.083327     -0.474625
H            -0.085263      0.083030     -0.451101
H            -0.414779      0.250000      0.299134
H             0.085221      0.250000      0.450866
H             0.414737      0.083030     -0.298899
O            -0.196805      0.083277      0.404599
O            -0.303252      0.250000     -0.345276
O             0.196748      0.250000     -0.404724
O             0.303195      0.083277      0.345401
O            -0.053406      0.082954     -0.351355
O            -0.446604      0.250000      0.398894
O             0.053396      0.250000      0.351106
O             0.446594      0.082953     -0.398645
Fe            0.146825      0.416673     -0.275375
Ni            0.353175     -0.416673      0.474625
Fe           -0.146825     -0.416673      0.275375
Fe           -0.353175      0.416673     -0.474625
H            -0.085263      0.416970     -0.451101
H            -0.414737     -0.416970      0.298899
H             0.085263     -0.416970      0.451101
H             0.414737      0.416970     -0.298899
O            -0.196805      0.416723      0.404599
O            -0.303195     -0.416723     -0.345401
O             0.196805     -0.416723     -0.404599
O             0.303195      0.416723      0.345401
O            -0.053406      0.417047     -0.351355
O            -0.446594     -0.417047      0.398645
O             0.053406     -0.417047      0.351355
O             0.446594      0.417046     -0.398645
H             0.451134     -0.207847      0.346694
H             0.046735     -0.250000      0.214756
H             0.146735     -0.150000      0.234756
data_nwchem_pspw

_audit_creation_date   Fri Jan 27 07:40:27 2023
_audit_creation_method    generated by PSPW module of NWChem


_cell_length_a            10.0667
_cell_length_b             9.1552
_cell_length_c             9.2041
_cell_angle_alpha         90.0000
_cell_angle_beta          90.0000
_cell_angle_gamma         90.0000

_symmetry_space_group_name_H-M     P1  

loop_
_atom_site_type_symbol
_atom_site_fract_x
_atom_site_fract_y
_atom_site_fract_z
H             0.146735     -0.250000      0.224756
Fe            0.353175     -0.083327     -0.025375
Fe           -0.146825     -0.083327     -0.224625
Fe           -0.353265     -0.250000      0.025244
H            -0.085221     -0.250000      0.049134
H            -0.414737     -0.083030     -0.201101
H             0.085263     -0.083030     -0.048899
H             0.414779     -0.250000      0.200866
O            -0.196748     -0.250000     -0.095276
O            -0.303195     -0.083277      0.154599
O             0.196805     -0.083277      0.095401
O             0.303252     -0.250000     -0.154724
O            -0.053396     -0.250000      0.148894
O            -0.446594     -0.082953     -0.101355
O             0.053406     -0.082954     -0.148645
O             0.446604     -0.250000      0.101106
Fe            0.146825      0.083327      0.224625
Fe            0.353265      0.250000     -0.025244
Fe           -0.146735      0.250000     -0.224756
Fe           -0.353175      0.083327      0.025375
H            -0.085263      0.083030      0.048899
H            -0.414779      0.250000     -0.200866
H             0.085221      0.250000     -0.049134
H             0.414737      0.083030      0.201101
O            -0.196805      0.083277     -0.095401
O            -0.303252      0.250000      0.154724
O             0.196748      0.250000      0.095276
O             0.303195      0.083277     -0.154599
O            -0.053406      0.082954      0.148645
O            -0.446604      0.250000     -0.101106
O             0.053396      0.250000     -0.148894
O             0.446594      0.082953      0.101355
Fe            0.146825      0.416673      0.224625
Fe            0.353175     -0.416673     -0.025375
Fe           -0.146825     -0.416673     -0.224625
Fe           -0.353175      0.416673      0.025375
H            -0.085263      0.416970      0.048899
H            -0.414737     -0.416970     -0.201101
H             0.085263     -0.416970     -0.048899
H             0.414737      0.416970      0.201101
O            -0.196805      0.416723     -0.095401
O            -0.303195     -0.416723      0.154599
O             0.196805     -0.416723      0.095401
O             0.303195      0.416723     -0.154599
O            -0.053406      0.417047      0.148645
O            -0.446594     -0.417047     -0.101355
O             0.053406     -0.417047     -0.148645
O             0.446594      0.417046      0.101355
Fe            0.146735     -0.250000     -0.275244
Fe            0.353175     -0.083327      0.474625
Fe           -0.146825     -0.083327      0.275375
Fe           -0.353265     -0.250000     -0.474756
H            -0.085221     -0.250000     -0.450866
H            -0.414737     -0.083030      0.298899
H             0.085263     -0.083030      0.451101
H             0.414779     -0.250000     -0.299134
O            -0.196748     -0.250000      0.404724
O            -0.303195     -0.083277     -0.345401
O             0.196805     -0.083277     -0.404599
O             0.303252     -0.250000      0.345276
O            -0.053396     -0.250000     -0.351106
O            -0.446594     -0.082953      0.398645
O             0.053406     -0.082954      0.351355
O             0.446604     -0.250000     -0.398894
Fe            0.146825      0.083327     -0.275375
Fe            0.353265      0.250000      0.474756
Fe           -0.146735      0.250000      0.275244
Fe           -0.353175      0.083327     -0.474625
H            -0.085263      0.083030     -0.451101
H            -0.414779      0.250000      0.299134
H             0.085221      0.250000      0.450866
H             0.414737      0.083030     -0.298899
O            -0.196805      0.083277      0.404599
O            -0.303252      0.250000     -0.345276
O             0.196748      0.250000     -0.404724
O             0.303195      0.083277      0.345401
O            -0.053406      0.082954     -0.351355
O            -0.446604      0.250000      0.398894
O             0.053396      0.250000      0.351106
O             0.446594      0.082953     -0.398645
Fe            0.146825      0.416673     -0.275375
Ni            0.353175     -0.416673      0.474625
Fe           -0.146825     -0.416673      0.275375
Fe           -0.353175      0.416673     -0.474625
H            -0.085263      0.416970     -0.451101
H            -0.414737     -0.416970      0.298899
H             0.085263     -0.416970      0.451101
H             0.414737      0.416970     -0.298899
O            -0.196805      0.416723      0.404599
O            -0.303195     -0.416723     -0.345401
O             0.196805     -0.416723     -0.404599
O             0.303195      0.416723      0.345401
O            -0.053406      0.417047     -0.351355
O            -0.446594     -0.417047      0.398645
O             0.053406     -0.417047      0.351355
O             0.446594      0.417046     -0.398645
H             0.451134     -0.207847      0.346694
H             0.046735     -0.250000      0.214756
H             0.146735     -0.150000      0.234756
data_nwchem_pspw

_audit_creation_date   Fri Jan 27 07:59:43 2023
_audit_creation_method    generated by PSPW module of NWChem


_cell_length_a            10.0667
_cell_length_b             9.1552
_cell_length_c             9.2041
_cell_angle_alpha         90.0000
_cell_angle_beta          90.0000
_cell_angle_gamma         90.0000

_symmetry_space_group_name_H-M     P1  

loop_
_atom_site_type_symbol
_atom_site_fract_x
_atom_site_fract_y
_atom_site_fract_z
H             0.146735     -0.250000      0.224756
Fe            0.353175     -0.083327     -0.025375
Fe           -0.146825     -0.083327     -0.224625
Fe           -0.353265     -0.250000      0.025244
H            -0.085221     -0.250000      0.049134
H            -0.414737     -0.083030     -0.201101
H             0.085263     -0.083030     -0.048899
H             0.414779     -0.250000      0.200866
O            -0.196748     -0.250000     -0.095276
O            -0.303195     -0.083277      0.154599
O             0.196805     -0.083277      0.095401
O             0.303252     -0.250000     -0.154724
O            -0.053396     -0.250000      0.148894
O            -0.446594     -0.082953     -0.101355
O             0.053406     -0.082954     -0.148645
O             0.446604     -0.250000      0.101106
Fe            0.146825      0.083327      0.224625
Fe            0.353265      0.250000     -0.025244
Fe           -0.146735      0.250000     -0.224756
Fe           -0.353175      0.083327      0.025375
H            -0.085263      0.083030      0.048899
H            -0.414779      0.250000     -0.200866
H             0.085221      0.250000     -0.049134
H             0.414737      0.083030      0.201101
O            -0.196805      0.083277     -0.095401
O            -0.303252      0.250000      0.154724
O             0.196748      0.250000      0.095276
O             0.303195      0.083277     -0.154599
O            -0.053406      0.082954      0.148645
O            -0.446604      0.250000     -0.101106
O             0.053396      0.250000     -0.148894
O             0.446594      0.082953      0.101355
Fe            0.146825      0.416673      0.224625
Fe            0.353175     -0.416673     -0.025375
Fe           -0.146825     -0.416673     -0.224625
Fe           -0.353175      0.416673      0.025375
H            -0.085263      0.416970      0.048899
H            -0.414737     -0.416970     -0.201101
H             0.085263     -0.416970     -0.048899
H             0.414737      0.416970      0.201101
O            -0.196805      0.416723     -0.095401
O            -0.303195     -0.416723      0.154599
O             0.196805     -0.416723      0.095401
O             0.303195      0.416723     -0.154599
O            -0.053406      0.417047      0.148645
O            -0.446594     -0.417047     -0.101355
O             0.053406     -0.417047     -0.148645
O             0.446594      0.417046      0.101355
Fe            0.146735     -0.250000     -0.275244
Fe            0.353175     -0.083327      0.474625
Fe           -0.146825     -0.083327      0.275375
Fe           -0.353265     -0.250000     -0.474756
H            -0.085221     -0.250000     -0.450866
H            -0.414737     -0.083030      0.298899
H             0.085263     -0.083030      0.451101
H             0.414779     -0.250000     -0.299134
O            -0.196748     -0.250000      0.404724
O            -0.303195     -0.083277     -0.345401
O             0.196805     -0.083277     -0.404599
O             0.303252     -0.250000      0.345276
O            -0.053396     -0.250000     -0.351106
O            -0.446594     -0.082953      0.398645
O             0.053406     -0.082954      0.351355
O             0.446604     -0.250000     -0.398894
Fe            0.146825      0.083327     -0.275375
Fe            0.353265      0.250000      0.474756
Fe           -0.146735      0.250000      0.275244
Fe           -0.353175      0.083327     -0.474625
H            -0.085263      0.083030     -0.451101
H            -0.414779      0.250000      0.299134
H             0.085221      0.250000      0.450866
H             0.414737      0.083030     -0.298899
O            -0.196805      0.083277      0.404599
O            -0.303252      0.250000     -0.345276
O             0.196748      0.250000     -0.404724
O             0.303195      0.083277      0.345401
O            -0.053406      0.082954     -0.351355
O            -0.446604      0.250000      0.398894
O             0.053396      0.250000      0.351106
O             0.446594      0.082953     -0.398645
Fe            0.146825      0.416673     -0.275375
Ni            0.353175     -0.416673      0.474625
Fe           -0.146825     -0.416673      0.275375
Fe           -0.353175      0.416673     -0.474625
H            -0.085263      0.416970     -0.451101
H            -0.414737     -0.416970      0.298899
H             0.085263     -0.416970      0.451101
H             0.414737      0.416970     -0.298899
O            -0.196805      0.416723      0.404599
O            -0.303195     -0.416723     -0.345401
O             0.196805     -0.416723     -0.404599
O             0.303195      0.416723      0.345401
O            -0.053406      0.417047     -0.351355
O            -0.446594     -0.417047      0.398645
O             0.053406     -0.417047      0.351355
O             0.446594      0.417046     -0.398645
H             0.451134     -0.207847      0.346694
H             0.046735     -0.250000      0.214756
H             0.146735     -0.150000      0.234756
data_nwchem_pspw

_audit_creation_date   Fri Jan 27 10:30:08 2023
_audit_creation_method    generated by PSPW module of NWChem


_cell_length_a            10.0667
_cell_length_b             9.1552
_cell_length_c             9.2041
_cell_angle_alpha         90.0000
_cell_angle_beta          90.0000
_cell_angle_gamma         90.0000

_symmetry_space_group_name_H-M     P1  

loop_
_atom_site_type_symbol
_atom_site_fract_x
_atom_site_fract_y
_atom_site_fract_z
H             0.189863     -0.329491      0.152892
Fe            0.363334     -0.077791     -0.037806
Fe           -0.143302     -0.073172     -0.232480
Fe           -0.365098     -0.252496      0.031198
H            -0.131237     -0.241025     -0.010081
H            -0.412558     -0.092960     -0.209845
H             0.084613     -0.083552     -0.042382
H             0.379523     -0.229533      0.247179
O            -0.189187     -0.246459     -0.096468
O            -0.306536     -0.081714      0.161250
O             0.207767     -0.075454      0.090286
O             0.297728     -0.248581     -0.156670
O            -0.074776     -0.257017      0.145081
O            -0.439378     -0.080231     -0.108886
O             0.049985     -0.082071     -0.145650
O             0.445100     -0.250040      0.085620
Fe            0.139149      0.080169      0.222849
Fe            0.352045      0.255826     -0.019617
Fe           -0.149230      0.257231     -0.213521
Fe           -0.353419      0.087984      0.015280
H            -0.062537      0.070095      0.050985
H            -0.413490      0.243228     -0.211587
H             0.080197      0.255592     -0.043778
H             0.408288      0.096940      0.200281
O            -0.194226      0.081441     -0.092963
O            -0.300768      0.250877      0.151579
O             0.190020      0.250050      0.097806
O             0.300588      0.089563     -0.154623
O            -0.050379      0.083603      0.153338
O            -0.444189      0.252688     -0.111968
O             0.065859      0.254395     -0.146106
O             0.450451      0.095420      0.098867
Fe            0.131577      0.409308      0.223428
Fe            0.371318     -0.409035     -0.034746
Fe           -0.147528     -0.424295     -0.231763
Fe           -0.356321      0.423807      0.044424
H            -0.089625      0.439586      0.043510
H            -0.398722     -0.422083     -0.204473
H             0.105227     -0.391352     -0.051855
H             0.403665      0.437657      0.206824
O            -0.199465      0.421396     -0.092438
O            -0.288827     -0.410676      0.165695
O             0.173630     -0.415393      0.094955
O             0.308846      0.422377     -0.148976
O            -0.051604      0.412598      0.136852
O            -0.426674     -0.421560     -0.103158
O             0.058075     -0.414120     -0.147807
O             0.446773      0.422596      0.099811
Fe            0.132948     -0.253757     -0.274026
Fe            0.340740     -0.098935      0.467935
Fe           -0.129215     -0.091106      0.304759
Fe           -0.360033     -0.257008     -0.470002
H            -0.089516     -0.255909     -0.456884
H            -0.340502     -0.083417      0.257982
H             0.099456     -0.053504      0.460933
H             0.397935     -0.261689     -0.300290
O            -0.196374     -0.257126      0.409819
O            -0.300185     -0.083012     -0.348079
O             0.197174     -0.071938     -0.399886
O             0.316951     -0.240910      0.319756
O            -0.054509     -0.251091     -0.355586
O            -0.461264     -0.104399      0.401456
O             0.072837     -0.079321      0.362764
O             0.442006     -0.251453     -0.393912
Fe            0.142932      0.090010     -0.286729
Fe            0.351738      0.254277      0.456908
Fe           -0.144723      0.239298      0.279419
Fe           -0.357911      0.090096     -0.469953
H            -0.082253      0.082572     -0.448307
H            -0.413688      0.228987      0.292518
H             0.070743      0.251021      0.459968
H             0.399189      0.090758     -0.307416
O            -0.192668      0.075462      0.416511
O            -0.304855      0.245247     -0.349071
O             0.192922      0.252401     -0.410466
O             0.306098      0.078612      0.338947
O            -0.056022      0.096652     -0.346425
O            -0.441915      0.235954      0.391323
O             0.045019      0.241207      0.358219
O             0.439361      0.095676     -0.402032
Fe            0.143407      0.424437     -0.277716
Ni            0.361682     -0.417466      0.473534
Fe           -0.136771     -0.422354      0.289948
Fe           -0.360453      0.418201     -0.472109
H            -0.079689      0.386965     -0.450493
H            -0.399813     -0.417979      0.291475
H             0.109809     -0.420981      0.455036
H             0.427778      0.409871     -0.298486
O            -0.192277      0.403476      0.416649
O            -0.313386     -0.428239     -0.335992
O             0.196330     -0.408962     -0.408288
O             0.310198      0.422379      0.332147
O            -0.054368      0.407938     -0.345701
O            -0.430053     -0.416761      0.392482
O             0.061109     -0.435157      0.363301
O             0.455801      0.408022     -0.395892
H            -0.489804     -0.145651      0.320294
H             0.011142     -0.282065      0.150214
H             0.223360     -0.136237      0.177353
data_nwchem_pspw

_audit_creation_date   Fri Jan 27 13:27:43 2023
_audit_creation_method    generated by PSPW module of NWChem


_cell_length_a            10.0667
_cell_length_b             9.1552
_cell_length_c             9.2041
_cell_angle_alpha         90.0000
_cell_angle_beta          90.0000
_cell_angle_gamma         90.0000

_symmetry_space_group_name_H-M     P1  

loop_
_atom_site_type_symbol
_atom_site_fract_x
_atom_site_fract_y
_atom_site_fract_z
H             0.215988     -0.333127      0.203321
Fe            0.361071     -0.088263     -0.031456
Fe           -0.133833     -0.089216     -0.228099
Fe           -0.370506     -0.259840      0.025071
H            -0.132839     -0.255086     -0.016255
H            -0.399323     -0.092716     -0.202662
H             0.095626     -0.099637     -0.040548
H             0.374547     -0.239274      0.263540
O            -0.208015     -0.252445     -0.098117
O            -0.296050     -0.099328      0.145990
O             0.191617     -0.083958      0.094008
O             0.309064     -0.251935     -0.166668
O            -0.058475     -0.253678      0.121550
O            -0.437514     -0.077018     -0.107807
O             0.052033     -0.098792     -0.131842
O             0.434942     -0.253839      0.100858
Fe            0.137219      0.090560      0.230486
Fe            0.361165      0.252353     -0.014371
Fe           -0.141773      0.242373     -0.234534
Fe           -0.362066      0.083041      0.009077
H            -0.076955      0.071347      0.047470
H            -0.408303      0.257878     -0.203267
H             0.065490      0.256597     -0.046990
H             0.405092      0.095780      0.210731
O            -0.198824      0.075291     -0.107944
O            -0.300918      0.236728      0.146136
O             0.197711      0.250042      0.110618
O             0.308753      0.081578     -0.148331
O            -0.049953      0.083496      0.147390
O            -0.452695      0.242693     -0.109726
O             0.054239      0.258418     -0.153689
O             0.452362      0.067636      0.116299
Fe            0.141973      0.430258      0.240712
Fe            0.362511     -0.414578     -0.024369
Fe           -0.137832     -0.431398     -0.216753
Fe           -0.351769      0.409550      0.027871
H            -0.084249      0.404468      0.048368
H            -0.403468     -0.437280     -0.205563
H             0.094561     -0.439894     -0.053730
H             0.405543      0.425243      0.205764
O            -0.194611      0.396243     -0.101663
O            -0.289172     -0.415060      0.134268
O             0.203582     -0.399546      0.116913
O             0.298712      0.404235     -0.138695
O            -0.055358      0.419297      0.149648
O            -0.445098     -0.439657     -0.110763
O             0.074200     -0.436122     -0.154747
O             0.450417      0.410226      0.113428
Fe            0.151027     -0.250200     -0.288205
Fe            0.343583     -0.077739      0.474373
Fe           -0.132938     -0.079353      0.281190
Fe           -0.359245     -0.249461     -0.471068
H            -0.092235     -0.244537     -0.449097
H            -0.354166     -0.089928      0.235288
H             0.087855     -0.079302      0.441501
H             0.416474     -0.240937     -0.308707
O            -0.198280     -0.247078      0.400457
O            -0.292004     -0.078561     -0.350124
O             0.173946     -0.073206     -0.413296
O             0.306378     -0.233596      0.331568
O            -0.053189     -0.260385     -0.347454
O            -0.442237     -0.082651      0.394395
O             0.054218     -0.085740      0.344602
O             0.449467     -0.232799     -0.404753
Fe            0.138800      0.068242     -0.261523
Fe            0.352559      0.257146      0.476130
Fe           -0.149943      0.249316      0.284550
Fe           -0.363073      0.090309     -0.475630
H            -0.085510      0.074997     -0.453993
H            -0.442808      0.272487      0.309996
H             0.067670      0.239809      0.461974
H             0.407043      0.105796     -0.286818
O            -0.199205      0.085635      0.400642
O            -0.295409      0.267856     -0.361828
O             0.193043      0.241959     -0.395823
O             0.308594      0.090743      0.360181
O            -0.056909      0.070421     -0.353735
O            -0.456953      0.257555      0.410360
O             0.047032      0.236307      0.361374
O             0.444934      0.090412     -0.386697
Fe            0.151964      0.413731     -0.274243
Ni            0.359296     -0.406176      0.465519
Fe           -0.142748     -0.411604      0.270377
Fe           -0.363776      0.433724     -0.469566
H            -0.092459      0.426553     -0.441775
H            -0.415412     -0.380568      0.287376
H             0.081151     -0.414959      0.462723
H             0.405071      0.441831     -0.289055
O            -0.198069      0.424791      0.407984
O            -0.308765     -0.401053     -0.329877
O             0.181406     -0.418360     -0.420213
O             0.313870      0.415495      0.343241
O            -0.050309      0.407263     -0.351254
O            -0.448848     -0.403916      0.385137
O             0.043882     -0.422388      0.359959
O             0.438810      0.429238     -0.391148
H            -0.488516     -0.101319      0.301327
H             0.035820     -0.242609      0.119368
H             0.177432     -0.147028      0.175571
data_nwchem_pspw

_audit_creation_date   Fri Jan 27 16:27:40 2023
_audit_creation_method    generated by PSPW module of NWChem


_cell_length_a            10.0667
_cell_length_b             9.1552
_cell_length_c             9.2041
_cell_angle_alpha         90.0000
_cell_angle_beta          90.0000
_cell_angle_gamma         90.0000

_symmetry_space_group_name_H-M     P1  

loop_
_atom_site_type_symbol
_atom_site_fract_x
_atom_site_fract_y
_atom_site_fract_z
H             0.195135     -0.357742      0.188064
Fe            0.365323     -0.079864     -0.019720
Fe           -0.146687     -0.082277     -0.216601
Fe           -0.358182     -0.251848      0.019289
H            -0.117699     -0.255028      0.014067
H            -0.417080     -0.074223     -0.225176
H             0.068718     -0.086942     -0.061948
H             0.375333     -0.253967      0.255211
O            -0.189016     -0.253817     -0.093019
O            -0.318263     -0.082764      0.164098
O             0.183132     -0.104091      0.095927
O             0.297739     -0.250617     -0.144401
O            -0.048513     -0.237689      0.115529
O            -0.448450     -0.058031     -0.121221
O             0.057158     -0.085065     -0.161975
O             0.464700     -0.249515      0.091591
Fe            0.134809      0.078060      0.234242
Fe            0.352784      0.254988      0.002344
Fe           -0.141282      0.250466     -0.221807
Fe           -0.353616      0.102789      0.016399
H            -0.085995      0.087452      0.050036
H            -0.410635      0.255186     -0.200814
H             0.102393      0.241811     -0.049742
H             0.409793      0.096317      0.208601
O            -0.198320      0.089423     -0.095279
O            -0.311798      0.254848      0.157570
O             0.188325      0.241990      0.095598
O             0.294325      0.090783     -0.143474
O            -0.060429      0.080662      0.148644
O            -0.442926      0.264155     -0.105274
O             0.054398      0.260662     -0.147962
O             0.453981      0.079109      0.116533
Fe            0.136889      0.403402      0.240811
Fe            0.349980     -0.415655     -0.024495
Fe           -0.133525     -0.417800     -0.229379
Fe           -0.358736      0.421324      0.023732
H            -0.100398      0.417267      0.049984
H            -0.425854     -0.389281     -0.222483
H             0.078776     -0.428652     -0.050508
H             0.412799      0.422967      0.207383
O            -0.194768      0.415757     -0.094468
O            -0.285907     -0.409221      0.146241
O             0.194904     -0.426920      0.106666
O             0.289832      0.424526     -0.137838
O            -0.058123      0.419554      0.151820
O            -0.446328     -0.404941     -0.118400
O             0.052000     -0.415942     -0.146535
O             0.445699      0.423666      0.104846
Fe            0.143116     -0.240150     -0.285050
Fe            0.350398     -0.094529      0.464634
Fe           -0.132219     -0.082808      0.282556
Fe           -0.352610     -0.266388     -0.490069
H            -0.103024     -0.241542     -0.457583
H            -0.385102     -0.039908      0.231750
H             0.078125     -0.105373      0.448233
H             0.403974     -0.250966     -0.295601
O            -0.180269     -0.264555      0.417299
O            -0.307427     -0.090430     -0.347584
O             0.191348     -0.081105     -0.413529
O             0.302838     -0.263411      0.324500
O            -0.061098     -0.247305     -0.355725
O            -0.452923     -0.106366      0.392139
O             0.047559     -0.069962      0.355271
O             0.438936     -0.252365     -0.397782
Fe            0.141592      0.092643     -0.273280
Fe            0.354898      0.246418      0.463484
Fe           -0.153824      0.257035      0.274003
Fe           -0.358103      0.083713     -0.464436
H            -0.053495      0.095072     -0.463427
H            -0.405061      0.236898      0.302567
H             0.088070      0.239833      0.470585
H             0.406606      0.081723     -0.300364
O            -0.211997      0.075901      0.394428
O            -0.307307      0.238970     -0.329469
O             0.204604      0.243966     -0.407150
O             0.301585      0.075826      0.336224
O            -0.056796      0.100370     -0.358367
O            -0.443548      0.235212      0.400732
O             0.048486      0.238518      0.371989
O             0.431860      0.081701     -0.404256
Fe            0.148882      0.428358     -0.288409
Ni            0.362426     -0.423837      0.471394
Fe           -0.129519     -0.406744      0.279260
Fe           -0.356214      0.411803     -0.454190
H            -0.094795      0.426806     -0.467453
H            -0.417662     -0.455972      0.300537
H             0.065561     -0.425801      0.471910
H             0.428736      0.392690     -0.298789
O            -0.200714      0.415010      0.407596
O            -0.295414     -0.426584     -0.352193
O             0.195203     -0.415941     -0.408468
O             0.324647      0.412083      0.331988
O            -0.058831      0.424249     -0.364686
O            -0.438186     -0.429738      0.401353
O             0.051857     -0.430967      0.362623
O             0.439171      0.409524     -0.402052
H            -0.452562     -0.163642      0.299597
H             0.048617     -0.208784      0.096042
H             0.220870     -0.154181      0.178449
data_nwchem_pspw

_audit_creation_date   Fri Jan 27 20:04:28 2023
_audit_creation_method    generated by PSPW module of NWChem


_cell_length_a            10.0667
_cell_length_b             9.1552
_cell_length_c             9.2041
_cell_angle_alpha         90.0000
_cell_angle_beta          90.0000
_cell_angle_gamma         90.0000

_symmetry_space_group_name_H-M     P1  

loop_
_atom_site_type_symbol
_atom_site_fract_x
_atom_site_fract_y
_atom_site_fract_z
H             0.211072     -0.338820      0.181782
Fe            0.371167     -0.086108     -0.033409
Fe           -0.147000     -0.077567     -0.219859
Fe           -0.374030     -0.258348      0.009729
H            -0.117079     -0.268456     -0.022346
H            -0.408896     -0.075620     -0.217111
H             0.094488     -0.093421     -0.060278
H             0.375202     -0.267858      0.256905
O            -0.194994     -0.268658     -0.092544
O            -0.287017     -0.100756      0.151884
O             0.202212     -0.076676      0.091944
O             0.306341     -0.246426     -0.151371
O            -0.054085     -0.259564      0.140668
O            -0.446632     -0.084101     -0.108094
O             0.050868     -0.078377     -0.153410
O             0.453489     -0.254830      0.101044
Fe            0.144473      0.083870      0.209657
Fe            0.355132      0.248728     -0.034552
Fe           -0.138495      0.240956     -0.203246
Fe           -0.370271      0.087910      0.036902
H            -0.101433      0.081393      0.049780
H            -0.411470      0.239825     -0.198915
H             0.083907      0.268042     -0.060101
H             0.393975      0.102564      0.219012
O            -0.204054      0.074303     -0.090001
O            -0.294635      0.246351      0.155988
O             0.202721      0.269494      0.084651
O             0.284195      0.065032     -0.148222
O            -0.053165      0.079324      0.141980
O            -0.452638      0.248249     -0.099502
O             0.055108      0.248772     -0.156666
O             0.448688      0.096789      0.118278
Fe            0.148006      0.424759      0.229260
Fe            0.357584     -0.415688     -0.022695
Fe           -0.134152     -0.422198     -0.234931
Fe           -0.356050      0.409299      0.026640
H            -0.086069      0.421956      0.046206
H            -0.412208     -0.435131     -0.218884
H             0.067714     -0.423418     -0.054281
H             0.400378      0.414347      0.192370
O            -0.192819      0.422095     -0.082360
O            -0.310485     -0.412152      0.170390
O             0.199376     -0.403172      0.101454
O             0.287008      0.429686     -0.139426
O            -0.052333      0.418890      0.144587
O            -0.439007     -0.424443     -0.116659
O             0.056821     -0.412012     -0.154417
O             0.447512      0.409746      0.097809
Fe            0.150019     -0.238290     -0.281696
Fe            0.348248     -0.091464      0.477793
Fe           -0.115720     -0.087605      0.284057
Fe           -0.371604     -0.255233     -0.472597
H            -0.104572     -0.238397     -0.448568
H            -0.344722     -0.078508      0.232593
H             0.082114     -0.079527      0.449960
H             0.404729     -0.260848     -0.291545
O            -0.188790     -0.235146      0.407557
O            -0.311167     -0.079703     -0.344990
O             0.192922     -0.072830     -0.407806
O             0.305543     -0.246032      0.330625
O            -0.067612     -0.245012     -0.353970
O            -0.451995     -0.094906      0.386585
O             0.060949     -0.076215      0.348352
O             0.436528     -0.252112     -0.394327
Fe            0.138672      0.090689     -0.280200
Fe            0.343415      0.262204      0.480995
Fe           -0.134978      0.257548      0.287856
Fe           -0.357814      0.079785     -0.476181
H            -0.100141      0.104675     -0.458230
H            -0.412399      0.231097      0.308295
H             0.087395      0.232909      0.454461
H             0.427883      0.068477     -0.298139
O            -0.194356      0.084112      0.402117
O            -0.306630      0.249101     -0.329072
O             0.186963      0.251895     -0.399501
O             0.311435      0.107383      0.341932
O            -0.060895      0.073288     -0.364112
O            -0.446100      0.246931      0.410978
O             0.064063      0.245736      0.348795
O             0.447991      0.073412     -0.399390
Fe            0.139346      0.426785     -0.282699
Ni            0.359295     -0.415257      0.480106
Fe           -0.143400     -0.413015      0.281669
Fe           -0.350421      0.413844     -0.474707
H            -0.084179      0.407766     -0.454875
H            -0.401937     -0.418524      0.302549
H             0.072690     -0.430568      0.457929
H             0.402905      0.417911     -0.294608
O            -0.194815      0.412485      0.413298
O            -0.298412     -0.422541     -0.352060
O             0.172753     -0.415411     -0.411456
O             0.311007      0.429343      0.343700
O            -0.052015      0.395405     -0.355749
O            -0.441241     -0.426857      0.402798
O             0.034992     -0.450245      0.356360
O             0.442342      0.422612     -0.388827
H            -0.493629     -0.120875      0.294693
H             0.032651     -0.305024      0.136511
H             0.171117     -0.149806      0.157851
data_nwchem_pspw

_audit_creation_date   Fri Jan 27 22:33:38 2023
_audit_creation_method    generated by PSPW module of NWChem


_cell_length_a            10.0667
_cell_length_b             9.1552
_cell_length_c             9.2041
_cell_angle_alpha         90.0000
_cell_angle_beta          90.0000
_cell_angle_gamma         90.0000

_symmetry_space_group_name_H-M     P1  

loop_
_atom_site_type_symbol
_atom_site_fract_x
_atom_site_fract_y
_atom_site_fract_z
H             0.216514     -0.379323      0.204336
Fe            0.362451     -0.088000     -0.034840
Fe           -0.159899     -0.069483     -0.228128
Fe           -0.365741     -0.256705      0.043035
H            -0.123899     -0.261361     -0.010593
H            -0.403512     -0.089200     -0.208652
H             0.081746     -0.067276     -0.046703
H             0.391778     -0.256859      0.264320
O            -0.195466     -0.245324     -0.092821
O            -0.308529     -0.066553      0.163584
O             0.201427     -0.099338      0.096638
O             0.315532     -0.248327     -0.156605
O            -0.054489     -0.232731      0.128460
O            -0.429156     -0.082820     -0.106003
O             0.053362     -0.093934     -0.143082
O             0.455351     -0.244610      0.110856
Fe            0.129743      0.074964      0.223378
Fe            0.355696      0.246125     -0.017821
Fe           -0.153388      0.251951     -0.219149
Fe           -0.360339      0.089178      0.022873
H            -0.106158      0.070530      0.049645
H            -0.412389      0.262627     -0.198961
H             0.080899      0.273951     -0.052554
H             0.397060      0.061068      0.195911
O            -0.198091      0.083917     -0.092733
O            -0.304456      0.247736      0.153052
O             0.195356      0.246454      0.108817
O             0.293078      0.080788     -0.145446
O            -0.060905      0.089169      0.143299
O            -0.441325      0.256327     -0.097952
O             0.053618      0.242514     -0.151967
O             0.440105      0.072941      0.099110
Fe            0.147422      0.412523      0.237662
Fe            0.358353     -0.407271     -0.012406
Fe           -0.153163     -0.417044     -0.245266
Fe           -0.357955      0.422728      0.026803
H            -0.063921      0.413200      0.040324
H            -0.430455     -0.415213     -0.215150
H             0.092715     -0.411021     -0.050563
H             0.421778      0.428702      0.206836
O            -0.204415      0.433964     -0.111572
O            -0.295424     -0.419398      0.153189
O             0.192029     -0.420838      0.109802
O             0.287544      0.412692     -0.128899
O            -0.039564      0.418979      0.142831
O            -0.448781     -0.418076     -0.104714
O             0.045251     -0.420852     -0.140132
O             0.457005      0.426457      0.112769
Fe            0.144305     -0.247614     -0.266204
Fe            0.341673     -0.085396      0.477077
Fe           -0.128887     -0.074397      0.286241
Fe           -0.349978     -0.259114     -0.475933
H            -0.077150     -0.236395     -0.453278
H            -0.350453     -0.044759      0.260501
H             0.097444     -0.078543      0.455029
H             0.426461     -0.232209     -0.304498
O            -0.193377     -0.256068      0.389920
O            -0.306295     -0.093735     -0.354610
O             0.182317     -0.090724     -0.403635
O             0.315051     -0.264823      0.329498
O            -0.057088     -0.254677     -0.347183
O            -0.444092     -0.100266      0.394553
O             0.050659     -0.065205      0.361593
O             0.443852     -0.247880     -0.404853
Fe            0.146637      0.082762     -0.275462
Fe            0.349358      0.244990      0.459950
Fe           -0.137699      0.256390      0.285092
Fe           -0.350429      0.087446     -0.468249
H            -0.067327      0.065436     -0.460826
H            -0.406729      0.247600      0.286934
H             0.090495      0.234431      0.454151
H             0.425602      0.082033     -0.312228
O            -0.199081      0.088192      0.397545
O            -0.304190      0.247444     -0.349652
O             0.206935      0.246227     -0.398222
O             0.300697      0.074072      0.337097
O            -0.051146      0.087330     -0.358569
O            -0.438555      0.258485      0.384692
O             0.054890      0.248408      0.358145
O             0.457989      0.083966     -0.410793
Fe            0.147375      0.413970     -0.273911
Ni            0.348843     -0.425251      0.483205
Fe           -0.119358     -0.409177      0.259709
Fe           -0.358531      0.422287     -0.489349
H            -0.071554      0.423596     -0.460322
H            -0.405166     -0.427887      0.306280
H             0.085344     -0.404536      0.457008
H             0.411089      0.389568     -0.300879
O            -0.199357      0.426223      0.397155
O            -0.314347     -0.418365     -0.344208
O             0.193373     -0.414751     -0.409245
O             0.317577      0.421320      0.335385
O            -0.049722      0.417231     -0.358452
O            -0.437867     -0.425143      0.403044
O             0.048293     -0.428652      0.359604
O             0.439445      0.394618     -0.401586
H            -0.482502     -0.143278      0.307037
H             0.036977     -0.245981      0.119862
H             0.210157     -0.170843      0.172697
data_nwchem_pspw

_audit_creation_date   Sat Jan 28 01:34:38 2023
_audit_creation_method    generated by PSPW module of NWChem


_cell_length_a            10.0667
_cell_length_b             9.1552
_cell_length_c             9.2041
_cell_angle_alpha         90.0000
_cell_angle_beta          90.0000
_cell_angle_gamma         90.0000

_symmetry_space_group_name_H-M     P1  

loop_
_atom_site_type_symbol
_atom_site_fract_x
_atom_site_fract_y
_atom_site_fract_z
H             0.213504     -0.354535      0.197568
Fe            0.359667     -0.080873     -0.028518
Fe           -0.143297     -0.089439     -0.221383
Fe           -0.380908     -0.260683      0.021146
H            -0.125962     -0.239676      0.002122
H            -0.389147     -0.097514     -0.201968
H             0.071877     -0.087671     -0.048042
H             0.365494     -0.245247      0.275274
O            -0.199348     -0.254211     -0.086007
O            -0.293902     -0.084741      0.131789
O             0.196820     -0.070462      0.091125
O             0.296254     -0.240842     -0.152008
O            -0.068464     -0.253823      0.137438
O            -0.439476     -0.097365     -0.105269
O             0.055938     -0.088916     -0.150062
O             0.445531     -0.234988      0.110659
Fe            0.154470      0.091912      0.224936
Fe            0.358283      0.248655     -0.028077
Fe           -0.136942      0.252885     -0.231830
Fe           -0.347759      0.091274      0.008874
H            -0.078131      0.103881      0.047185
H            -0.388578      0.264341     -0.207281
H             0.095432      0.232184     -0.052407
H             0.428278      0.086990      0.204148
O            -0.183565      0.077345     -0.100454
O            -0.291575      0.248381      0.156209
O             0.177343      0.245393      0.089179
O             0.313402      0.088247     -0.161093
O            -0.054038      0.085604      0.152045
O            -0.431432      0.250517     -0.107573
O             0.060058      0.247277     -0.155768
O             0.458787      0.090662      0.100372
Fe            0.141328      0.410470      0.243051
Fe            0.354407     -0.402542     -0.021967
Fe           -0.145606     -0.419132     -0.225805
Fe           -0.354581      0.414420      0.019855
H            -0.099510      0.405045      0.043409
H            -0.438769     -0.424128     -0.217352
H             0.058032     -0.441890     -0.037394
H             0.396142      0.410897      0.195708
O            -0.182665      0.411731     -0.094904
O            -0.313600     -0.417229      0.136311
O             0.185024     -0.402170      0.110339
O             0.296266      0.422240     -0.149954
O            -0.065335      0.415020      0.148851
O            -0.449530     -0.427781     -0.108464
O             0.045618     -0.423083     -0.138183
O             0.439190      0.422639      0.100782
Fe            0.147442     -0.263300     -0.280725
Fe            0.339976     -0.090578      0.483554
Fe           -0.127808     -0.088226      0.292255
Fe           -0.357638     -0.253997     -0.465745
H            -0.076128     -0.248373     -0.449400
H            -0.331529     -0.036217      0.218605
H             0.100355     -0.097807      0.431006
H             0.402454     -0.261663     -0.291212
O            -0.190870     -0.261649      0.411472
O            -0.309628     -0.075838     -0.334539
O             0.183704     -0.089102     -0.405137
O             0.282191     -0.241749      0.332538
O            -0.050374     -0.260271     -0.343085
O            -0.453520     -0.096667      0.403082
O             0.058510     -0.053270      0.347096
O             0.448266     -0.231177     -0.378296
Fe            0.141852      0.082099     -0.279239
Fe            0.355506      0.251283      0.472955
Fe           -0.144149      0.251210      0.281219
Fe           -0.362332      0.092257     -0.470076
H            -0.077219      0.061878     -0.451471
H            -0.407754      0.248372      0.302142
H             0.104820      0.259988      0.463087
H             0.410547      0.104518     -0.307611
O            -0.207738      0.069327      0.405877
O            -0.302971      0.264298     -0.348051
O             0.188490      0.250740     -0.414384
O             0.321295      0.078616      0.342021
O            -0.056428      0.078149     -0.349362
O            -0.442627      0.260824      0.399997
O             0.056361      0.252654      0.363050
O             0.439580      0.088019     -0.405169
Fe            0.147072      0.425833     -0.286348
Ni            0.357271     -0.416273      0.471309
Fe           -0.133311     -0.424087      0.279320
Fe           -0.359883      0.418412     -0.479153
H            -0.080691      0.420171     -0.458211
H            -0.416414     -0.405586      0.305132
H             0.085436     -0.411436      0.463744
H             0.416203      0.399867     -0.286204
O            -0.200783      0.415701      0.409873
O            -0.305381     -0.407182     -0.344763
O             0.186958     -0.413187     -0.415482
O             0.304873      0.412171      0.353225
O            -0.048040      0.410379     -0.358766
O            -0.449861     -0.408147      0.404075
O             0.036917     -0.434543      0.373780
O             0.450741      0.415901     -0.385054
H            -0.453289     -0.110901      0.300136
H             0.026466     -0.278832      0.144897
H             0.205510     -0.146863      0.161783
data_nwchem_pspw

_audit_creation_date   Sat Jan 28 04:37:36 2023
_audit_creation_method    generated by PSPW module of NWChem


_cell_length_a            10.0667
_cell_length_b             9.1552
_cell_length_c             9.2041
_cell_angle_alpha         90.0000
_cell_angle_beta          90.0000
_cell_angle_gamma         90.0000

_symmetry_space_group_name_H-M     P1  

loop_
_atom_site_type_symbol
_atom_site_fract_x
_atom_site_fract_y
_atom_site_fract_z
H             0.235153     -0.344532      0.169533
Fe            0.354004     -0.084432     -0.030931
Fe           -0.141867     -0.076560     -0.227903
Fe           -0.362285     -0.254887      0.038380
H            -0.127589     -0.265387      0.004543
H            -0.414442     -0.096928     -0.191657
H             0.056444     -0.058472     -0.035116
H             0.378692     -0.254771      0.235433
O            -0.185152     -0.265745     -0.089116
O            -0.310105     -0.090204      0.153727
O             0.183643     -0.097754      0.111366
O             0.308570     -0.231495     -0.176207
O            -0.066187     -0.245280      0.150796
O            -0.440971     -0.083992     -0.088082
O             0.037808     -0.052617     -0.137074
O             0.447548     -0.255249      0.104511
Fe            0.133542      0.075168      0.243032
Fe            0.347955      0.258966     -0.023918
Fe           -0.133635      0.247045     -0.221536
Fe           -0.364234      0.091909      0.015453
H            -0.092888      0.063977      0.046735
H            -0.431505      0.247819     -0.208546
H             0.089635      0.256282     -0.044177
H             0.405651      0.076316      0.206780
O            -0.205043      0.084513     -0.109614
O            -0.320996      0.247084      0.161271
O             0.196259      0.250140      0.105398
O             0.329685      0.084839     -0.170099
O            -0.057162      0.075692      0.146740
O            -0.461106      0.250743     -0.108923
O             0.069171      0.248096     -0.151055
O             0.435617      0.080103      0.102885
Fe            0.138944      0.423425      0.232329
Fe            0.370071     -0.404771     -0.039315
Fe           -0.143538     -0.432135     -0.223671
Fe           -0.360422      0.406877      0.033456
H            -0.095097      0.426857      0.044610
H            -0.376887     -0.414045     -0.189995
H             0.088887     -0.418423     -0.058630
H             0.400053      0.399630      0.198143
O            -0.187868      0.403801     -0.090438
O            -0.298891     -0.418728      0.159613
O             0.202371     -0.403517      0.091729
O             0.305627      0.433006     -0.165349
O            -0.053607      0.427379      0.143540
O            -0.413341     -0.417758     -0.093440
O             0.065119     -0.422714     -0.160131
O             0.446661      0.417578      0.102947
Fe            0.128661     -0.247227     -0.278802
Fe            0.354194     -0.092707      0.477672
Fe           -0.133578     -0.086287      0.298854
Fe           -0.365932     -0.243715     -0.457474
H            -0.099842     -0.223300     -0.445009
H            -0.361789     -0.053229      0.231609
H             0.065745     -0.072414      0.477407
H             0.395239     -0.250248     -0.308699
O            -0.202539     -0.250153      0.403923
O            -0.303724     -0.082091     -0.335656
O             0.190386     -0.081443     -0.398724
O             0.311438     -0.255095      0.316623
O            -0.054375     -0.241141     -0.348881
O            -0.455883     -0.089408      0.390312
O             0.045991     -0.079466      0.374647
O             0.437494     -0.254024     -0.409095
Fe            0.161108      0.087423     -0.277416
Fe            0.354031      0.245587      0.460120
Fe           -0.148086      0.256138      0.276080
Fe           -0.356213      0.098051     -0.472563
H            -0.065501      0.087633     -0.443818
H            -0.417833      0.247565      0.291245
H             0.077584      0.234804      0.463692
H             0.414698      0.057847     -0.325285
O            -0.204496      0.097544      0.404513
O            -0.312434      0.243621     -0.330236
O             0.203744      0.242695     -0.409894
O             0.298340      0.071996      0.355254
O            -0.035256      0.070816     -0.346726
O            -0.444160      0.253481      0.391236
O             0.047777      0.238239      0.361977
O             0.456592      0.072036     -0.415361
Fe            0.158563      0.415202     -0.301078
Ni            0.356475     -0.422110      0.458723
Fe           -0.137190     -0.415430      0.285693
Fe           -0.364856      0.423387     -0.469915
H            -0.076789      0.425393     -0.455332
H            -0.394808     -0.427325      0.295368
H             0.076987     -0.434866      0.444192
H             0.405213      0.408656     -0.300725
O            -0.194381      0.420728      0.409696
O            -0.310820     -0.412947     -0.335101
O             0.181597     -0.405832     -0.419827
O             0.311357      0.410857      0.333480
O            -0.041530      0.415076     -0.356633
O            -0.437615     -0.437441      0.391894
O             0.049042     -0.431545      0.345008
O             0.443706      0.412768     -0.397458
H            -0.446736     -0.158288      0.314323
H             0.024650     -0.253200      0.123523
H             0.223141     -0.166522      0.176805
data_nwchem_pspw

_audit_creation_date   Sat Jan 28 07:28:13 2023
_audit_creation_method    generated by PSPW module of NWChem


_cell_length_a            10.0667
_cell_length_b             9.1552
_cell_length_c             9.2041
_cell_angle_alpha         90.0000
_cell_angle_beta          90.0000
_cell_angle_gamma         90.0000

_symmetry_space_group_name_H-M     P1  

loop_
_atom_site_type_symbol
_atom_site_fract_x
_atom_site_fract_y
_atom_site_fract_z
H             0.205405     -0.358267      0.181718
Fe            0.367079     -0.074014     -0.022902
Fe           -0.143588     -0.096448     -0.237300
Fe           -0.379633     -0.269276      0.028004
H            -0.134936     -0.252146     -0.013658
H            -0.405161     -0.067980     -0.206382
H             0.095087     -0.065875     -0.055618
H             0.378427     -0.254803      0.286836
O            -0.201713     -0.257892     -0.097266
O            -0.305295     -0.085402      0.156154
O             0.195707     -0.084082      0.086056
O             0.313265     -0.243954     -0.152343
O            -0.066763     -0.243865      0.136484
O            -0.446417     -0.059500     -0.106342
O             0.051755     -0.080639     -0.149364
O             0.434549     -0.248114      0.110882
Fe            0.150968      0.077980      0.229490
Fe            0.357100      0.259967     -0.027354
Fe           -0.158117      0.244267     -0.218389
Fe           -0.350595      0.081416      0.016473
H            -0.087990      0.081621      0.037200
H            -0.401295      0.263215     -0.201943
H             0.098308      0.265708     -0.051364
H             0.415601      0.103208      0.205951
O            -0.184611      0.068454     -0.089890
O            -0.294375      0.241904      0.138688
O             0.191202      0.256254      0.086035
O             0.301096      0.091175     -0.149115
O            -0.053715      0.082402      0.141498
O            -0.442279      0.256322     -0.108071
O             0.051894      0.266160     -0.144151
O             0.445306      0.098971      0.103248
Fe            0.133803      0.417706      0.221898
Fe            0.355912     -0.406036     -0.021001
Fe           -0.149797     -0.421794     -0.238062
Fe           -0.342292      0.411906      0.033018
H            -0.091142      0.421995      0.049096
H            -0.420764     -0.404717     -0.204548
H             0.080079     -0.388939     -0.061895
H             0.408262      0.416316      0.190959
O            -0.201767      0.411963     -0.103725
O            -0.315754     -0.423902      0.150718
O             0.192279     -0.421283      0.098589
O             0.302334      0.424300     -0.146082
O            -0.058825      0.435292      0.145862
O            -0.442411     -0.425458     -0.106878
O             0.038225     -0.413831     -0.153827
O             0.456741      0.436174      0.101867
Fe            0.159352     -0.249756     -0.278006
Fe            0.349352     -0.089774     -0.496599
Fe           -0.124011     -0.076669      0.275346
Fe           -0.352723     -0.253193     -0.476304
H            -0.078235     -0.244165     -0.458354
H            -0.355578     -0.097070      0.242470
H             0.085206     -0.053486      0.463057
H             0.424754     -0.261181     -0.295767
O            -0.195731     -0.243193      0.401599
O            -0.313496     -0.080608     -0.344540
O             0.186750     -0.077850     -0.402428
O             0.298676     -0.254802      0.346364
O            -0.048225     -0.245881     -0.360192
O            -0.446592     -0.071349      0.406934
O             0.053498     -0.061078      0.364155
O             0.457989     -0.244685     -0.392110
Fe            0.136020      0.088772     -0.264671
Fe            0.359619      0.248550      0.478425
Fe           -0.145919      0.250290      0.266318
Fe           -0.350206      0.085682     -0.475542
H            -0.079965      0.105710     -0.443740
H            -0.427494      0.259702      0.299000
H             0.106013      0.242439      0.445013
H             0.411942      0.089199     -0.279637
O            -0.188832      0.085647      0.413789
O            -0.311709      0.247106     -0.345502
O             0.193205      0.252996     -0.408892
O             0.314973      0.066913      0.346939
O            -0.056201      0.080247     -0.342525
O            -0.454730      0.249657      0.398271
O             0.052754      0.237381      0.353112
O             0.438620      0.078596     -0.384134
Fe            0.153782      0.422065     -0.278931
Ni            0.349321     -0.438975      0.477952
Fe           -0.148164     -0.411714      0.274430
Fe           -0.359563      0.417073     -0.476297
H            -0.074748      0.416321     -0.447281
H            -0.419792     -0.406557      0.291761
H             0.101234     -0.423852      0.437852
H             0.396693      0.434092     -0.303776
O            -0.198353      0.415424      0.402274
O            -0.302534     -0.402551     -0.352093
O             0.191550     -0.410718     -0.407090
O             0.310511      0.411320      0.337233
O            -0.051878      0.422454     -0.347673
O            -0.446357     -0.416860      0.395197
O             0.043747     -0.445363      0.355241
O             0.437212      0.408854     -0.396476
H            -0.479366     -0.026894      0.321980
H             0.024942     -0.257224      0.112596
H             0.213536     -0.142262      0.171705
data_nwchem_pspw

_audit_creation_date   Sat Jan 28 10:28:36 2023
_audit_creation_method    generated by PSPW module of NWChem


_cell_length_a            10.0667
_cell_length_b             9.1552
_cell_length_c             9.2041
_cell_angle_alpha         90.0000
_cell_angle_beta          90.0000
_cell_angle_gamma         90.0000

_symmetry_space_group_name_H-M     P1  

loop_
_atom_site_type_symbol
_atom_site_fract_x
_atom_site_fract_y
_atom_site_fract_z
H             0.224049     -0.355420      0.187079
Fe            0.368259     -0.087949     -0.030890
Fe           -0.136337     -0.082935     -0.226672
Fe           -0.354354     -0.266380      0.014417
H            -0.115363     -0.257193     -0.001062
H            -0.412344     -0.087954     -0.189648
H             0.093683     -0.095426     -0.052013
H             0.369738     -0.242589      0.246875
O            -0.178750     -0.256597     -0.090399
O            -0.301378     -0.083860      0.155980
O             0.188721     -0.088793      0.081449
O             0.290549     -0.246366     -0.151695
O            -0.049291     -0.255598      0.150938
O            -0.440624     -0.088010     -0.093241
O             0.054041     -0.079871     -0.149387
O             0.453189     -0.254480      0.094471
Fe            0.137130      0.083428      0.218974
Fe            0.345537      0.249717     -0.030406
Fe           -0.135139      0.253257     -0.216103
Fe           -0.346605      0.085364      0.024509
H            -0.109547      0.059463      0.066891
H            -0.402165      0.256279     -0.196144
H             0.084887      0.254436     -0.031764
H             0.425793      0.091763      0.207450
O            -0.182410      0.070320     -0.082565
O            -0.307744      0.241106      0.161614
O             0.192337      0.251612      0.092791
O             0.311494      0.071926     -0.158873
O            -0.055043      0.085665      0.151562
O            -0.448065      0.239084     -0.102437
O             0.061014      0.255015     -0.137867
O             0.456759      0.087433      0.106891
Fe            0.142517      0.419210      0.247404
Fe            0.359276     -0.408454     -0.011178
Fe           -0.150355     -0.414880     -0.233418
Fe           -0.367219      0.414167      0.024909
H            -0.098462      0.426434      0.041741
H            -0.416851     -0.424544     -0.219740
H             0.065897     -0.427873     -0.046941
H             0.417563      0.426569      0.215594
O            -0.211291      0.419646     -0.102382
O            -0.286378     -0.434211      0.146660
O             0.190033     -0.408991      0.105425
O             0.295913      0.419554     -0.146499
O            -0.057193      0.424673      0.138628
O            -0.452955     -0.416402     -0.115806
O             0.054116     -0.420865     -0.151015
O             0.437648      0.426355      0.112308
Fe            0.142030     -0.251858     -0.274199
Fe            0.350127     -0.098334      0.470938
Fe           -0.140502     -0.094054      0.294930
Fe           -0.370311     -0.246937     -0.468179
H            -0.099193     -0.254888     -0.461428
H            -0.378312     -0.088275      0.230318
H             0.104837     -0.100937      0.438943
H             0.412479     -0.257021     -0.291502
O            -0.204674     -0.252702      0.409347
O            -0.304125     -0.087401     -0.348046
O             0.198828     -0.090371     -0.398420
O             0.302808     -0.244401      0.316633
O            -0.063766     -0.251707     -0.358938
O            -0.458014     -0.097936      0.373480
O             0.056585     -0.065576      0.355999
O             0.435212     -0.257002     -0.392080
Fe            0.162965      0.086586     -0.282651
Fe            0.348639      0.253008      0.465821
Fe           -0.143560      0.253401      0.263687
Fe           -0.347909      0.097535     -0.464521
H            -0.078665      0.092661     -0.440646
H            -0.405627      0.234871      0.299055
H             0.084076      0.250013      0.444951
H             0.425559      0.092054     -0.305415
O            -0.198656      0.088210      0.406329
O            -0.312089      0.264788     -0.324456
O             0.187746      0.254808     -0.408188
O             0.303841      0.093533      0.337192
O            -0.052782      0.093254     -0.339336
O            -0.446600      0.244660      0.397175
O             0.050090      0.260655      0.342950
O             0.456925      0.079234     -0.408160
Fe            0.147904      0.417204     -0.276892
Ni            0.356638     -0.419812      0.477051
Fe           -0.128775     -0.413528      0.278376
Fe           -0.367470      0.428005     -0.479170
H            -0.095886      0.439835     -0.450758
H            -0.421019     -0.405386      0.292115
H             0.105297     -0.413815      0.457873
H             0.410067      0.408703     -0.304062
O            -0.196724      0.423936      0.420681
O            -0.314128     -0.414080     -0.346329
O             0.191549     -0.407852     -0.405416
O             0.302668      0.426160      0.339094
O            -0.058152      0.404535     -0.348112
O            -0.454565     -0.403941      0.388273
O             0.043000     -0.439138      0.376216
O             0.437218      0.417578     -0.403409
H            -0.499780     -0.147958      0.293930
H             0.036216     -0.300062      0.131036
H             0.188106     -0.170229      0.142129
data_nwchem_pspw

_audit_creation_date   Sat Jan 28 13:28:50 2023
_audit_creation_method    generated by PSPW module of NWChem


_cell_length_a            10.0667
_cell_length_b             9.1552
_cell_length_c             9.2041
_cell_angle_alpha         90.0000
_cell_angle_beta          90.0000
_cell_angle_gamma         90.0000

_symmetry_space_group_name_H-M     P1  

loop_
_atom_site_type_symbol
_atom_site_fract_x
_atom_site_fract_y
_atom_site_fract_z
H             0.199736     -0.354239      0.195363
Fe            0.363849     -0.083277     -0.030855
Fe           -0.149075     -0.074477     -0.224462
Fe           -0.367629     -0.255805      0.041577
H            -0.119175     -0.235839      0.013162
H            -0.396768     -0.102169     -0.207509
H             0.081003     -0.104408     -0.054184
H             0.351053     -0.270055      0.255648
O            -0.186570     -0.244373     -0.077683
O            -0.302952     -0.082889      0.163669
O             0.199762     -0.068982      0.100090
O             0.302790     -0.255873     -0.155098
O            -0.057464     -0.232918      0.147135
O            -0.439939     -0.086472     -0.107596
O             0.055793     -0.078001     -0.152498
O             0.444436     -0.257588      0.094019
Fe            0.146138      0.091630      0.235839
Fe            0.347278      0.245935     -0.021144
Fe           -0.133939      0.250620     -0.233336
Fe           -0.352873      0.084997      0.007159
H            -0.095624      0.092898      0.053565
H            -0.412948      0.272269     -0.203735
H             0.067931      0.228263     -0.040318
H             0.418797      0.067021      0.201230
O            -0.196232      0.086601     -0.098684
O            -0.299401      0.242579      0.155315
O             0.190102      0.247835      0.102636
O             0.306672      0.086288     -0.157536
O            -0.054831      0.090240      0.149669
O            -0.446175      0.250954     -0.108176
O             0.049449      0.248001     -0.143095
O             0.451932      0.083237      0.100124
Fe            0.145534      0.408954      0.232806
Fe            0.351408     -0.415324     -0.029744
Fe           -0.148827     -0.418454     -0.230047
Fe           -0.350845      0.412585      0.029303
H            -0.079252      0.417176      0.044993
H            -0.394717     -0.418886     -0.204011
H             0.067402     -0.430662     -0.054846
H             0.449441      0.394314      0.205381
O            -0.192582      0.413512     -0.109034
O            -0.297102     -0.423683      0.144594
O             0.187413     -0.409069      0.105771
O             0.303717      0.412712     -0.144887
O            -0.047689      0.423545      0.143478
O            -0.436894     -0.428886     -0.106626
O             0.057811     -0.405973     -0.155972
O             0.459336      0.429788      0.107042
Fe            0.143978     -0.247982     -0.282723
Fe            0.350839     -0.084283      0.476757
Fe           -0.131333     -0.080203      0.294511
Fe           -0.363235     -0.247743     -0.481190
H            -0.091016     -0.223073     -0.443256
H            -0.352850     -0.087340      0.255660
H             0.100827     -0.116774      0.436270
H             0.424508     -0.259794     -0.297315
O            -0.198590     -0.246517      0.409595
O            -0.314199     -0.100961     -0.334482
O             0.207859     -0.087169     -0.401412
O             0.304882     -0.259333      0.343092
O            -0.067431     -0.232730     -0.341945
O            -0.451385     -0.108658      0.371672
O             0.050618     -0.062569      0.364762
O             0.444074     -0.255718     -0.402142
Fe            0.143649      0.082732     -0.280519
Fe            0.356662      0.249067      0.477400
Fe           -0.146103      0.265428      0.277742
Fe           -0.355115      0.083114     -0.459295
H            -0.113763      0.086287     -0.457405
H            -0.421501      0.246123      0.289208
H             0.075397      0.245845      0.460483
H             0.433266      0.074856     -0.289627
O            -0.198626      0.080439      0.419509
O            -0.300171      0.250861     -0.352945
O             0.184934      0.239528     -0.407044
O             0.315563      0.085610      0.347470
O            -0.065747      0.074581     -0.360620
O            -0.446988      0.236070      0.391870
O             0.048568      0.240316      0.360744
O             0.461414      0.076516     -0.392444
Fe            0.151321      0.421166     -0.285705
Ni            0.359011     -0.424344      0.467475
Fe           -0.144374     -0.404350      0.270527
Fe           -0.362891      0.415855     -0.469606
H            -0.101275      0.420840     -0.455237
H            -0.424923     -0.434419      0.290418
H             0.068820     -0.433097      0.443221
H             0.404749      0.411932     -0.278110
O            -0.194492      0.425265      0.408660
O            -0.315840     -0.414704     -0.335142
O             0.185447     -0.403135     -0.416340
O             0.317330      0.402622      0.338670
O            -0.056371      0.419933     -0.355812
O            -0.444303     -0.432143      0.393007
O             0.043827     -0.438252      0.340706
O             0.427677      0.409533     -0.383696
H             0.496780     -0.177790      0.316179
H             0.031012     -0.269087      0.152152
H             0.198550     -0.133006      0.179614
data_nwchem_pspw

_audit_creation_date   Sat Jan 28 16:31:14 2023
_audit_creation_method    generated by PSPW module of NWChem


_cell_length_a            10.0667
_cell_length_b             9.1552
_cell_length_c             9.2041
_cell_angle_alpha         90.0000
_cell_angle_beta          90.0000
_cell_angle_gamma         90.0000

_symmetry_space_group_name_H-M     P1  

loop_
_atom_site_type_symbol
_atom_site_fract_x
_atom_site_fract_y
_atom_site_fract_z
H             0.209416     -0.343840      0.215484
Fe            0.344684     -0.084288     -0.013413
Fe           -0.146145     -0.083763     -0.229492
Fe           -0.373858     -0.251948      0.028868
H            -0.157881     -0.250474     -0.004782
H            -0.422485     -0.073450     -0.195971
H             0.061071     -0.090119     -0.042412
H             0.364667     -0.248388      0.258922
O            -0.209816     -0.252330     -0.088760
O            -0.295602     -0.096149      0.160341
O             0.188179     -0.085857      0.095339
O             0.310019     -0.242103     -0.146918
O            -0.047156     -0.272051      0.129186
O            -0.448323     -0.079922     -0.099518
O             0.056999     -0.095632     -0.144539
O             0.452588     -0.225887      0.121089
Fe            0.152818      0.082430      0.228594
Fe            0.346817      0.254479     -0.037668
Fe           -0.140743      0.243985     -0.221694
Fe           -0.356921      0.088226      0.024244
H            -0.050187      0.093461      0.048492
H            -0.401783      0.266823     -0.204062
H             0.104409      0.244946     -0.044804
H             0.412354      0.107766      0.207988
O            -0.198420      0.082256     -0.098910
O            -0.308973      0.252998      0.158751
O             0.189830      0.251102      0.094530
O             0.307020      0.089423     -0.143287
O            -0.039161      0.085047      0.148638
O            -0.438974      0.250082     -0.110720
O             0.062783      0.250127     -0.145887
O             0.435027      0.083794      0.097536
Fe            0.133672      0.417467      0.232291
Fe            0.362978     -0.407058     -0.023842
Fe           -0.154617     -0.428416     -0.247704
Fe           -0.358699      0.418955      0.027014
H            -0.078978      0.411207      0.039829
H            -0.406072     -0.409883     -0.213561
H             0.060352     -0.407972     -0.043489
H             0.406557      0.431576      0.205683
O            -0.207335      0.418503     -0.107022
O            -0.299251     -0.421918      0.153503
O             0.199214     -0.403548      0.124709
O             0.301498      0.430239     -0.148840
O            -0.061526      0.413679      0.142948
O            -0.447875     -0.422536     -0.109736
O             0.043814     -0.422532     -0.145851
O             0.452630      0.425047      0.108738
Fe            0.150889     -0.248653     -0.267467
Fe            0.351606     -0.083390      0.496599
Fe           -0.121871     -0.091460      0.290675
Fe           -0.358673     -0.251510     -0.488393
H            -0.066686     -0.234835     -0.455137
H            -0.350820     -0.088058      0.244900
H             0.079208     -0.110332      0.452341
H             0.393740     -0.247882     -0.304793
O            -0.186785     -0.247325      0.407217
O            -0.304192     -0.088795     -0.348704
O             0.185068     -0.078112     -0.388207
O             0.297163     -0.248198      0.341132
O            -0.053177     -0.243623     -0.348116
O            -0.454989     -0.095402      0.396671
O             0.057138     -0.093472      0.355442
O             0.436714     -0.248072     -0.402686
Fe            0.143038      0.089215     -0.271316
Fe            0.358037      0.257893      0.470687
Fe           -0.146602      0.247620      0.273593
Fe           -0.354061      0.079407     -0.472836
H            -0.074219      0.091083     -0.451960
H            -0.422771      0.250990      0.301088
H             0.095353      0.235659      0.461857
H             0.402992      0.096569     -0.297640
O            -0.206257      0.069836      0.390188
O            -0.292541      0.253331     -0.357500
O             0.198410      0.255490     -0.399708
O             0.311479      0.072995      0.345878
O            -0.057329      0.077135     -0.346730
O            -0.439410      0.238273      0.398906
O             0.058430      0.244751      0.363141
O             0.450131      0.089473     -0.391973
Fe            0.148630      0.433738     -0.279651
Ni            0.357935     -0.419925      0.463622
Fe           -0.132709     -0.414657      0.273188
Fe           -0.354704      0.417604     -0.483470
H            -0.103553      0.416802     -0.462660
H            -0.406266     -0.419078      0.290011
H             0.081712     -0.432765      0.456744
H             0.444012      0.428355     -0.296119
O            -0.191964      0.418916      0.398039
O            -0.311778     -0.412126     -0.349189
O             0.200872     -0.405016     -0.394331
O             0.316281      0.408831      0.338119
O            -0.066190      0.410430     -0.361096
O            -0.452264     -0.423497      0.385946
O             0.044320     -0.453958      0.363712
O             0.451663      0.422607     -0.399809
H            -0.490746     -0.112230      0.299777
H             0.046143     -0.249656      0.129658
H             0.202474     -0.147605      0.182156
data_nwchem_pspw

_audit_creation_date   Sat Jan 28 19:29:38 2023
_audit_creation_method    generated by PSPW module of NWChem


_cell_length_a            10.0667
_cell_length_b             9.1552
_cell_length_c             9.2041
_cell_angle_alpha         90.0000
_cell_angle_beta          90.0000
_cell_angle_gamma         90.0000

_symmetry_space_group_name_H-M     P1  

loop_
_atom_site_type_symbol
_atom_site_fract_x
_atom_site_fract_y
_atom_site_fract_z
H             0.193981     -0.345743      0.173688
Fe            0.365918     -0.074076     -0.032137
Fe           -0.144958     -0.095861     -0.231730
Fe           -0.366275     -0.252519      0.027068
H            -0.123245     -0.240407      0.004146
H            -0.410351     -0.080490     -0.222158
H             0.084089     -0.080500     -0.040116
H             0.366650     -0.256637      0.262460
O            -0.198506     -0.257730     -0.095854
O            -0.294671     -0.076282      0.157469
O             0.206285     -0.087710      0.109428
O             0.292326     -0.249059     -0.151431
O            -0.066643     -0.237786      0.116191
O            -0.438317     -0.060557     -0.123637
O             0.052195     -0.078241     -0.139479
O             0.443763     -0.242272      0.090037
Fe            0.144221      0.083325      0.224777
Fe            0.349551      0.259837     -0.026283
Fe           -0.139933      0.250137     -0.206543
Fe           -0.353784      0.095017      0.007992
H            -0.073464      0.104248      0.057851
H            -0.414946      0.270069     -0.202320
H             0.098404      0.233885     -0.047042
H             0.413638      0.087320      0.207322
O            -0.191715      0.063988     -0.089268
O            -0.311683      0.250895      0.158220
O             0.194140      0.255979      0.092691
O             0.316346      0.085366     -0.161603
O            -0.046267      0.091974      0.155262
O            -0.456126      0.271361     -0.101849
O             0.052933      0.227880     -0.141931
O             0.452510      0.097507      0.112562
Fe            0.135927      0.411929      0.236412
Fe            0.358314     -0.399863     -0.017682
Fe           -0.136602     -0.429699     -0.225737
Fe           -0.357719      0.416015      0.033201
H            -0.095775      0.406499      0.041244
H            -0.404589     -0.397490     -0.214036
H             0.096940     -0.456631     -0.051393
H             0.401316      0.399779      0.209810
O            -0.195075      0.414919     -0.076511
O            -0.304988     -0.416661      0.159381
O             0.190288     -0.414154      0.097285
O             0.303565      0.431556     -0.148270
O            -0.061234      0.418713      0.143830
O            -0.443875     -0.419392     -0.109961
O             0.059056     -0.429759     -0.145173
O             0.448326      0.425489      0.118226
Fe            0.135149     -0.247059     -0.281491
Fe            0.356837     -0.086973      0.473989
Fe           -0.119103     -0.090680      0.277983
Fe           -0.351003     -0.246516     -0.484483
H            -0.092916     -0.264393     -0.471591
H            -0.354007     -0.058017      0.242759
H             0.089258     -0.083629      0.457574
H             0.421423     -0.229185     -0.302546
O            -0.185685     -0.258728      0.408900
O            -0.308081     -0.083572     -0.366175
O             0.187493     -0.081429     -0.405085
O             0.298433     -0.241271      0.339144
O            -0.061853     -0.260306     -0.358224
O            -0.453174     -0.113685      0.367497
O             0.053917     -0.063552      0.363382
O             0.455594     -0.248394     -0.401984
Fe            0.139352      0.081511     -0.274916
Fe            0.347680      0.243198      0.464575
Fe           -0.162218      0.243647      0.282320
Fe           -0.351152      0.093620     -0.466784
H            -0.086346      0.102446     -0.452869
H            -0.428212      0.282012      0.299641
H             0.091231      0.247089      0.455134
H             0.421725      0.084152     -0.307352
O            -0.206540      0.073757      0.397084
O            -0.302769      0.257999     -0.327258
O             0.194317      0.235322     -0.413593
O             0.308757      0.081155      0.340188
O            -0.060228      0.084674     -0.351316
O            -0.462398      0.241849      0.397295
O             0.054881      0.256651      0.355704
O             0.454396      0.071148     -0.406611
Fe            0.148570      0.409353     -0.286243
Ni            0.361404     -0.418268      0.487177
Fe           -0.136361     -0.414201      0.276303
Fe           -0.366794      0.425289     -0.461199
H            -0.104811      0.403777     -0.454377
H            -0.428486     -0.442387      0.288693
H             0.105173     -0.402562      0.441658
H             0.405272      0.428223     -0.289998
O            -0.187681      0.407849      0.416475
O            -0.307888     -0.410309     -0.341611
O             0.191452     -0.417474     -0.407221
O             0.301744      0.404083      0.342026
O            -0.057522      0.403301     -0.353248
O            -0.448137     -0.417247      0.389269
O             0.063574     -0.415137      0.345329
O             0.441341      0.401277     -0.387563
H            -0.488631     -0.173664      0.295121
H             0.026884     -0.236664      0.096372
H             0.235107     -0.149693      0.190108
data_nwchem_pspw

_audit_creation_date   Sat Jan 28 22:35:35 2023
_audit_creation_method    generated by PSPW module of NWChem


_cell_length_a            10.0667
_cell_length_b             9.1552
_cell_length_c             9.2041
_cell_angle_alpha         90.0000
_cell_angle_beta          90.0000
_cell_angle_gamma         90.0000

_symmetry_space_group_name_H-M     P1  

loop_
_atom_site_type_symbol
_atom_site_fract_x
_atom_site_fract_y
_atom_site_fract_z
H             0.200739     -0.341184      0.175846
Fe            0.356274     -0.085379     -0.021810
Fe           -0.132963     -0.080349     -0.240183
Fe           -0.373992     -0.262846      0.032189
H            -0.142361     -0.244604     -0.007571
H            -0.430702     -0.090104     -0.188792
H             0.092502     -0.069208     -0.052158
H             0.362350     -0.271634      0.240216
O            -0.204432     -0.245618     -0.093825
O            -0.307440     -0.090178      0.155199
O             0.190842     -0.093466      0.097516
O             0.312806     -0.250593     -0.159358
O            -0.074604     -0.248922      0.119737
O            -0.448103     -0.087017     -0.091465
O             0.067593     -0.079726     -0.152208
O             0.442092     -0.255041      0.105902
Fe            0.141657      0.076525      0.246086
Fe            0.345368      0.250373     -0.012821
Fe           -0.137136      0.251983     -0.239032
Fe           -0.355383      0.095693      0.017502
H            -0.087455      0.078079      0.040783
H            -0.397533      0.242988     -0.208735
H             0.090550      0.230530     -0.048141
H             0.425248      0.095123      0.206164
O            -0.191792      0.081873     -0.107761
O            -0.307998      0.249015      0.155932
O             0.187444      0.238562      0.097327
O             0.305391      0.091708     -0.142670
O            -0.059335      0.073075      0.142750
O            -0.442618      0.250104     -0.105492
O             0.050665      0.233198     -0.147825
O             0.448099      0.088757      0.105710
Fe            0.144152      0.416301      0.233672
Fe            0.355260     -0.408588     -0.029647
Fe           -0.146138     -0.420723     -0.221154
Fe           -0.354698      0.409860      0.020096
H            -0.081144      0.401373      0.042509
H            -0.410018     -0.426634     -0.198750
H             0.071279     -0.449740     -0.046923
H             0.425183      0.381660      0.196451
O            -0.182324      0.406150     -0.091629
O            -0.291338     -0.423961      0.153754
O             0.187295     -0.405916      0.094058
O             0.284520      0.418820     -0.130460
O            -0.047243      0.406076      0.144196
O            -0.438192     -0.423314     -0.095031
O             0.054342     -0.412391     -0.146226
O             0.447012      0.404352      0.092120
Fe            0.156109     -0.238565     -0.274200
Fe            0.343769     -0.084780      0.460588
Fe           -0.128003     -0.092313      0.278614
Fe           -0.365628     -0.236385     -0.472820
H            -0.090707     -0.268811     -0.437668
H            -0.372808     -0.078111      0.239531
H             0.063945     -0.090379      0.464088
H             0.415639     -0.290536     -0.312658
O            -0.200849     -0.250472      0.405877
O            -0.300702     -0.086639     -0.350097
O             0.193762     -0.077249     -0.393940
O             0.301380     -0.256658      0.322769
O            -0.047924     -0.253793     -0.342980
O            -0.457193     -0.095063      0.369145
O             0.050468     -0.084219      0.359608
O             0.441388     -0.255879     -0.408029
Fe            0.158608      0.091208     -0.281417
Fe            0.367050      0.257402      0.481776
Fe           -0.148415      0.247561      0.268203
Fe           -0.355691      0.087437     -0.469304
H            -0.067744      0.078835     -0.468062
H            -0.414088      0.254787      0.300984
H             0.092011      0.243965      0.459565
H             0.417667      0.071004     -0.303539
O            -0.209239      0.079367      0.397539
O            -0.309450      0.264461     -0.339302
O             0.195903      0.261628     -0.404853
O             0.305818      0.084977      0.341536
O            -0.045186      0.084758     -0.366203
O            -0.440218      0.256444      0.404237
O             0.053698      0.241105      0.361436
O             0.446798      0.064468     -0.402086
Fe            0.133952      0.422711     -0.273054
Ni            0.355864     -0.419568      0.474764
Fe           -0.145093     -0.419118      0.284402
Fe           -0.355089      0.430176     -0.475284
H            -0.088331      0.399459     -0.450861
H            -0.414529     -0.421006      0.280446
H             0.111324     -0.383908      0.419319
H             0.405483      0.416478     -0.295724
O            -0.199209      0.412419      0.411827
O            -0.311583     -0.397985     -0.339570
O             0.205489     -0.411550     -0.384097
O             0.309883      0.404745      0.344106
O            -0.064491      0.415565     -0.347042
O            -0.441140     -0.405989      0.382486
O             0.049085     -0.441796      0.370845
O             0.448438      0.419360     -0.388617
H            -0.479884     -0.181028      0.312106
H             0.020871     -0.244455      0.121349
H             0.226467     -0.158629      0.168893
data_nwchem_pspw

_audit_creation_date   Sun Jan 29 01:31:45 2023
_audit_creation_method    generated by PSPW module of NWChem


_cell_length_a            10.0667
_cell_length_b             9.1552
_cell_length_c             9.2041
_cell_angle_alpha         90.0000
_cell_angle_beta          90.0000
_cell_angle_gamma         90.0000

_symmetry_space_group_name_H-M     P1  

loop_
_atom_site_type_symbol
_atom_site_fract_x
_atom_site_fract_y
_atom_site_fract_z
H             0.229258     -0.341986      0.206328
Fe            0.358078     -0.073567     -0.027596
Fe           -0.149515     -0.087255     -0.240452
Fe           -0.362598     -0.262324      0.029355
H            -0.115494     -0.251411      0.004359
H            -0.411741     -0.092155     -0.212800
H             0.070548     -0.067232     -0.056552
H             0.384223     -0.255045      0.262003
O            -0.170963     -0.262170     -0.087181
O            -0.286183     -0.080490      0.156713
O             0.172470     -0.062789      0.080039
O             0.290889     -0.243351     -0.153632
O            -0.060936     -0.251546      0.147702
O            -0.443101     -0.080066     -0.108450
O             0.042653     -0.075817     -0.160559
O             0.455137     -0.227063      0.109892
Fe            0.135354      0.098397      0.208619
Fe            0.360211      0.268460     -0.019808
Fe           -0.128241      0.250870     -0.228432
Fe           -0.357318      0.086002      0.009100
H            -0.100816      0.066357      0.045067
H            -0.406622      0.258690     -0.203640
H             0.100138      0.256625     -0.043414
H             0.410717      0.054478      0.209526
O            -0.186609      0.079905     -0.097114
O            -0.311246      0.244578      0.153328
O             0.190851      0.271842      0.089095
O             0.313226      0.100176     -0.145547
O            -0.065219      0.087913      0.142335
O            -0.443897      0.261523     -0.103436
O             0.068465      0.244324     -0.147319
O             0.453881      0.071753      0.112197
Fe            0.140997      0.422424      0.232003
Fe            0.357575     -0.404197     -0.025985
Fe           -0.143928     -0.422514     -0.214984
Fe           -0.351453      0.415402      0.022786
H            -0.093099      0.425831      0.051935
H            -0.401686     -0.405353     -0.212863
H             0.077018     -0.410937     -0.051299
H             0.408221      0.426800      0.216009
O            -0.177857      0.410931     -0.087736
O            -0.296659     -0.425384      0.165145
O             0.199400     -0.396119      0.113943
O             0.302012      0.419311     -0.146167
O            -0.055373      0.420300      0.146830
O            -0.435795     -0.422230     -0.103330
O             0.056969     -0.434205     -0.150321
O             0.440967      0.431781      0.111431
Fe            0.143476     -0.263886     -0.287529
Fe            0.339305     -0.088859      0.458174
Fe           -0.125698     -0.079767      0.302136
Fe           -0.360882     -0.263674     -0.470153
H            -0.106212     -0.274235     -0.448802
H            -0.335469     -0.084407      0.246915
H             0.093143     -0.096701      0.457481
H             0.399170     -0.203084     -0.300249
O            -0.205659     -0.255270      0.404026
O            -0.318611     -0.087322     -0.348769
O             0.190887     -0.090722     -0.403304
O             0.307466     -0.263575      0.331101
O            -0.070236     -0.259728     -0.349649
O            -0.459842     -0.107244      0.387990
O             0.062597     -0.057765      0.368938
O             0.435555     -0.247465     -0.387387
Fe            0.146841      0.082767     -0.266652
Fe            0.349073      0.253306      0.488628
Fe           -0.146005      0.252090      0.269689
Fe           -0.361456      0.081155     -0.469659
H            -0.077274      0.073131     -0.458232
H            -0.436014      0.222407      0.298410
H             0.082787      0.252074      0.450130
H             0.416109      0.089233     -0.297321
O            -0.197196      0.084654      0.412963
O            -0.305753      0.242839     -0.339332
O             0.186019      0.235494     -0.405013
O             0.315209      0.083242      0.329788
O            -0.055386      0.078061     -0.354593
O            -0.446376      0.234736      0.402223
O             0.050655      0.258629      0.347428
O             0.434271      0.079481     -0.402514
Fe            0.149891      0.420283     -0.287768
Ni            0.362491     -0.416676      0.491057
Fe           -0.143767     -0.417214      0.275388
Fe           -0.351165      0.409114     -0.481088
H            -0.084478      0.405508     -0.466804
H            -0.411798     -0.404157      0.304786
H             0.085067     -0.418007      0.448101
H             0.407744      0.419051     -0.277194
O            -0.191122      0.402244      0.401523
O            -0.321204     -0.424194     -0.332379
O             0.197345     -0.426407     -0.409493
O             0.299738      0.410219      0.351328
O            -0.056441      0.421742     -0.357863
O            -0.443206     -0.420723      0.401849
O             0.050897     -0.413979      0.348495
O             0.447931      0.407227     -0.371945
H            -0.496911     -0.094751      0.291656
H             0.031668     -0.277615      0.146058
H             0.154985     -0.158369      0.124327
data_nwchem_pspw

_audit_creation_date   Sun Jan 29 04:27:31 2023
_audit_creation_method    generated by PSPW module of NWChem


_cell_length_a            10.0667
_cell_length_b             9.1552
_cell_length_c             9.2041
_cell_angle_alpha         90.0000
_cell_angle_beta          90.0000
_cell_angle_gamma         90.0000

_symmetry_space_group_name_H-M     P1  

loop_
_atom_site_type_symbol
_atom_site_fract_x
_atom_site_fract_y
_atom_site_fract_z
H             0.243297     -0.357652      0.186841
Fe            0.361589     -0.092170     -0.017218
Fe           -0.154614     -0.079825     -0.236414
Fe           -0.367410     -0.264636      0.032889
H            -0.122152     -0.265288     -0.017080
H            -0.421592     -0.076332     -0.209140
H             0.070098     -0.048371     -0.060693
H             0.352126     -0.249363      0.259822
O            -0.194662     -0.241651     -0.086311
O            -0.316735     -0.072589      0.162245
O             0.192681     -0.078564      0.099367
O             0.311193     -0.243761     -0.158915
O            -0.053065     -0.272251      0.139393
O            -0.443093     -0.089765     -0.106651
O             0.043977     -0.067743     -0.158003
O             0.450885     -0.244459      0.105731
Fe            0.138444      0.079840      0.236699
Fe            0.346684      0.246659     -0.025006
Fe           -0.151772      0.258834     -0.221198
Fe           -0.356037      0.077813      0.009981
H            -0.089956      0.070019      0.040748
H            -0.409610      0.267871     -0.200780
H             0.088760      0.249690     -0.047246
H             0.400718      0.090179      0.210730
O            -0.188565      0.075436     -0.099445
O            -0.292543      0.236688      0.141767
O             0.188129      0.241203      0.101803
O             0.299296      0.079729     -0.151749
O            -0.051654      0.048520      0.135508
O            -0.444190      0.254427     -0.105615
O             0.053680      0.266247     -0.148553
O             0.439514      0.086670      0.109456
Fe            0.151922      0.418587      0.229581
Fe            0.365497     -0.405662     -0.023585
Fe           -0.139868     -0.417081     -0.242084
Fe           -0.351703      0.410323      0.022465
H            -0.088131      0.422521      0.058611
H            -0.405593     -0.418930     -0.196263
H             0.059745     -0.421065     -0.049116
H             0.392899      0.417505      0.184931
O            -0.190497      0.430783     -0.097175
O            -0.296188     -0.424893      0.168974
O             0.198624     -0.404204      0.104711
O             0.308004      0.426004     -0.148512
O            -0.046676      0.397347      0.148186
O            -0.444623     -0.418163     -0.093852
O             0.043582     -0.411452     -0.150597
O             0.444841      0.413920      0.092668
Fe            0.151310     -0.232709     -0.270633
Fe            0.346340     -0.078684      0.479939
Fe           -0.132389     -0.099691      0.271152
Fe           -0.370726     -0.263296     -0.473346
H            -0.104121     -0.231433     -0.463629
H            -0.357339     -0.049781      0.251475
H             0.061094     -0.069758      0.456799
H             0.399166     -0.230812     -0.298873
O            -0.197614     -0.253021      0.410770
O            -0.312861     -0.091546     -0.347937
O             0.184849     -0.069141     -0.408616
O             0.293366     -0.242572      0.344731
O            -0.066451     -0.232021     -0.362421
O            -0.460625     -0.092754      0.393409
O             0.038072     -0.074658      0.358278
O             0.437007     -0.241130     -0.399414
Fe            0.144083      0.099071     -0.283326
Fe            0.355715      0.260955      0.454575
Fe           -0.139282      0.237917      0.278231
Fe           -0.353900      0.086335     -0.470435
H            -0.084219      0.108483     -0.452752
H            -0.427632      0.229881      0.290795
H             0.078448      0.257642      0.453243
H             0.429789      0.065868     -0.290143
O            -0.213952      0.085152      0.386975
O            -0.320333      0.256715     -0.334215
O             0.210531      0.253958     -0.410493
O             0.307776      0.079192      0.337750
O            -0.067396      0.089841     -0.352462
O            -0.444919      0.232927      0.393261
O             0.055344      0.249854      0.356217
O             0.460637      0.074947     -0.387620
Fe            0.150950      0.432949     -0.274439
Ni            0.363638     -0.411197      0.483390
Fe           -0.127778     -0.429943      0.292287
Fe           -0.352492      0.414261     -0.472135
H            -0.112707      0.408081     -0.455789
H            -0.400679     -0.433254      0.298056
H             0.107154     -0.375882      0.436307
H             0.413234      0.433032     -0.304499
O            -0.185695      0.412270      0.416490
O            -0.314710     -0.429698     -0.339158
O             0.179541     -0.400135     -0.400221
O             0.305493      0.438639      0.345039
O            -0.058447      0.411840     -0.353002
O            -0.439109     -0.431608      0.394698
O             0.052527     -0.424715      0.366215
O             0.454626      0.409308     -0.396750
H            -0.466566     -0.149480      0.306370
H             0.034005     -0.304892      0.161825
H             0.166418     -0.157098      0.162740
data_nwchem_pspw

_audit_creation_date   Sun Jan 29 07:27:43 2023
_audit_creation_method    generated by PSPW module of NWChem


_cell_length_a            10.0667
_cell_length_b             9.1552
_cell_length_c             9.2041
_cell_angle_alpha         90.0000
_cell_angle_beta          90.0000
_cell_angle_gamma         90.0000

_symmetry_space_group_name_H-M     P1  

loop_
_atom_site_type_symbol
_atom_site_fract_x
_atom_site_fract_y
_atom_site_fract_z
H             0.210588     -0.352614      0.189559
Fe            0.350195     -0.090661     -0.028477
Fe           -0.148018     -0.092355     -0.220781
Fe           -0.370489     -0.234330      0.025429
H            -0.122231     -0.265134      0.012158
H            -0.415607     -0.077135     -0.211960
H             0.087447     -0.089310     -0.058085
H             0.366418     -0.264182      0.257470
O            -0.197697     -0.264356     -0.084116
O            -0.296027     -0.063966      0.153687
O             0.182101     -0.113070      0.101865
O             0.310176     -0.251973     -0.161272
O            -0.050641     -0.236874      0.123836
O            -0.451454     -0.078803     -0.113376
O             0.049676     -0.080069     -0.151449
O             0.446384     -0.241264      0.102450
Fe            0.143087      0.086532      0.215821
Fe            0.361675      0.263378     -0.039444
Fe           -0.156069      0.236957     -0.215113
Fe           -0.370669      0.092219      0.017482
H            -0.089034      0.086314      0.043320
H            -0.414985      0.268161     -0.212026
H             0.074245      0.236523     -0.043499
H             0.423293      0.085882      0.199712
O            -0.195001      0.073997     -0.090117
O            -0.314557      0.254448      0.155708
O             0.194244      0.255459      0.094195
O             0.311991      0.082506     -0.156432
O            -0.052430      0.091107      0.140755
O            -0.449070      0.249650     -0.115417
O             0.041595      0.231526     -0.143392
O             0.438607      0.098411      0.094002
Fe            0.148226      0.414338      0.240077
Fe            0.363089     -0.405745     -0.016124
Fe           -0.144540     -0.432969     -0.223380
Fe           -0.344975      0.430801      0.035869
H            -0.086642      0.409005      0.063288
H            -0.418897     -0.397557     -0.203923
H             0.083536     -0.450023     -0.045097
H             0.416916      0.409152      0.204238
O            -0.190057      0.405126     -0.091430
O            -0.301826     -0.398854      0.151791
O             0.204074     -0.414924      0.107274
O             0.311060      0.412032     -0.164163
O            -0.052519      0.425723      0.160935
O            -0.447011     -0.406232     -0.100979
O             0.050679     -0.430855     -0.141658
O             0.444663      0.423932      0.095439
Fe            0.146486     -0.261321     -0.272963
Fe            0.346138     -0.085351      0.467881
Fe           -0.120657     -0.072210      0.274910
Fe           -0.348905     -0.251075     -0.483337
H            -0.080209     -0.251114     -0.442416
H            -0.349356     -0.069714      0.248252
H             0.084672     -0.088588      0.436976
H             0.426810     -0.254079     -0.308677
O            -0.178156     -0.244989      0.400990
O            -0.307225     -0.088335     -0.348372
O             0.183980     -0.094732     -0.399922
O             0.300826     -0.249832      0.327998
O            -0.054234     -0.260323     -0.340522
O            -0.454254     -0.100973      0.372230
O             0.047959     -0.042479      0.353369
O             0.437857     -0.251927     -0.413536
Fe            0.152974      0.079679     -0.271280
Fe            0.363285      0.254159      0.476248
Fe           -0.147523      0.260224      0.274716
Fe           -0.355773      0.088276     -0.477018
H            -0.091371      0.070417     -0.454233
H            -0.404590      0.272575      0.296168
H             0.082194      0.225981      0.453412
H             0.422170      0.077040     -0.293378
O            -0.206006      0.079615      0.405060
O            -0.314882      0.250941     -0.340580
O             0.189830      0.235197     -0.407174
O             0.301801      0.073394      0.340037
O            -0.072168      0.073344     -0.352365
O            -0.438506      0.250002      0.399817
O             0.051486      0.259827      0.362290
O             0.445333      0.078940     -0.396179
Fe            0.145170      0.406324     -0.286414
Ni            0.356835     -0.419987      0.489693
Fe           -0.137682     -0.413592      0.291049
Fe           -0.357919      0.412285     -0.476637
H            -0.084031      0.409821     -0.451077
H            -0.400678     -0.411866      0.299660
H             0.083080     -0.397817      0.459322
H             0.412358      0.401450     -0.292263
O            -0.190585      0.427875      0.411496
O            -0.309247     -0.408378     -0.344775
O             0.190388     -0.418828     -0.405062
O             0.304169      0.397110      0.347191
O            -0.058984      0.399240     -0.350565
O            -0.447357     -0.423018      0.394647
O             0.046824     -0.416519      0.363457
O             0.447088      0.416593     -0.394878
H            -0.483934     -0.163892      0.292093
H             0.038079     -0.267999      0.108508
H             0.215804     -0.156918      0.193689
data_nwchem_pspw

_audit_creation_date   Sun Jan 29 10:29:32 2023
_audit_creation_method    generated by PSPW module of NWChem


_cell_length_a            10.0667
_cell_length_b             9.1552
_cell_length_c             9.2041
_cell_angle_alpha         90.0000
_cell_angle_beta          90.0000
_cell_angle_gamma         90.0000

_symmetry_space_group_name_H-M     P1  

loop_
_atom_site_type_symbol
_atom_site_fract_x
_atom_site_fract_y
_atom_site_fract_z
H             0.224209     -0.372745      0.197364
Fe            0.369195     -0.095874     -0.030104
Fe           -0.156308     -0.070071     -0.222567
Fe           -0.366347     -0.249841      0.057251
H            -0.121882     -0.254972     -0.014249
H            -0.422225     -0.094533     -0.203142
H             0.064568     -0.096484     -0.048675
H             0.357938     -0.247719      0.229996
O            -0.198923     -0.249286     -0.082325
O            -0.293442     -0.079767      0.150367
O             0.190211     -0.085531      0.083244
O             0.313076     -0.256620     -0.172286
O            -0.060123     -0.259093      0.143987
O            -0.429068     -0.060306     -0.101069
O             0.048505     -0.075827     -0.150254
O             0.439200     -0.245578      0.103739
Fe            0.140422      0.059145      0.235761
Fe            0.335387      0.237409     -0.033990
Fe           -0.138342      0.264941     -0.230332
Fe           -0.360543      0.101022      0.000356
H            -0.074895      0.111090      0.049674
H            -0.397147      0.262706     -0.219931
H             0.090902      0.250458     -0.053939
H             0.403364      0.078833      0.193379
O            -0.195384      0.098998     -0.106412
O            -0.305145      0.232699      0.164266
O             0.177906      0.221165      0.087657
O             0.303012      0.066015     -0.160144
O            -0.061785      0.080294      0.150325
O            -0.446209      0.267418     -0.117203
O             0.053374      0.244495     -0.153350
O             0.441598      0.077204      0.091683
Fe            0.147661      0.395616      0.242553
Fe            0.354109     -0.411498     -0.024066
Fe           -0.153892     -0.425176     -0.231806
Fe           -0.372783      0.414525      0.038925
H            -0.095568      0.405134      0.048399
H            -0.427911     -0.391143     -0.201364
H             0.073418     -0.408935     -0.053062
H             0.410718      0.389216      0.194339
O            -0.195196      0.415658     -0.087836
O            -0.305866     -0.422406      0.154899
O             0.208302     -0.430891      0.113215
O             0.310082      0.423962     -0.157382
O            -0.057907      0.410451      0.149463
O            -0.452479     -0.398243     -0.098535
O             0.050612     -0.407681     -0.154382
O             0.437206      0.397279      0.094274
Fe            0.148779     -0.248287     -0.276814
Fe            0.350460     -0.094549      0.474386
Fe           -0.124367     -0.090568      0.285802
Fe           -0.359247     -0.242652     -0.481603
H            -0.086193     -0.261532     -0.446095
H            -0.337666     -0.053822      0.239431
H             0.090695     -0.078265      0.461371
H             0.417639     -0.268239     -0.307926
O            -0.204694     -0.256322      0.395251
O            -0.310224     -0.077221     -0.345082
O             0.183339     -0.073075     -0.404451
O             0.309357     -0.257747      0.327421
O            -0.068937     -0.247781     -0.344642
O            -0.459098     -0.085553      0.381364
O             0.063515     -0.095456      0.363588
O             0.451675     -0.242046     -0.405602
Fe            0.138363      0.088324     -0.271845
Fe            0.357067      0.254178      0.479450
Fe           -0.137286      0.251830      0.281764
Fe           -0.357201      0.104909     -0.471514
H            -0.101656      0.086129     -0.443427
H            -0.394112      0.232435      0.304744
H             0.087504      0.241705      0.467425
H             0.424832      0.091625     -0.304965
O            -0.193793      0.076133      0.407488
O            -0.305361      0.251725     -0.339122
O             0.178876      0.259238     -0.409722
O             0.307279      0.082736      0.357920
O            -0.055042      0.086029     -0.350386
O            -0.435421      0.258702      0.400345
O             0.053781      0.221453      0.359879
O             0.442798      0.096166     -0.411221
Fe            0.149691      0.429649     -0.294583
Ni            0.384527     -0.404963      0.471335
Fe           -0.129963     -0.422684      0.276709
Fe           -0.361773      0.428807     -0.469450
H            -0.085349      0.409023     -0.459539
H            -0.404281     -0.403277      0.288120
H             0.108699     -0.427011      0.444232
H             0.417310      0.421243     -0.285804
O            -0.183972      0.405703      0.433516
O            -0.321302     -0.404086     -0.348234
O             0.202435     -0.409754     -0.416333
O             0.313956      0.403329      0.341673
O            -0.050471      0.417763     -0.353136
O            -0.436562     -0.425732      0.383042
O             0.058024     -0.447012      0.352894
O             0.448505      0.422058     -0.388617
H            -0.480193     -0.114809      0.285735
H             0.025114     -0.280170      0.186491
H             0.188759     -0.161596      0.155775
data_nwchem_pspw

_audit_creation_date   Sun Jan 29 13:29:14 2023
_audit_creation_method    generated by PSPW module of NWChem


_cell_length_a            10.0667
_cell_length_b             9.1552
_cell_length_c             9.2041
_cell_angle_alpha         90.0000
_cell_angle_beta          90.0000
_cell_angle_gamma         90.0000

_symmetry_space_group_name_H-M     P1  

loop_
_atom_site_type_symbol
_atom_site_fract_x
_atom_site_fract_y
_atom_site_fract_z
H             0.203240     -0.330247      0.162688
Fe            0.350782     -0.075147     -0.024535
Fe           -0.148149     -0.086028     -0.224110
Fe           -0.367208     -0.248967      0.036513
H            -0.120398     -0.246435     -0.007685
H            -0.402664     -0.071726     -0.204982
H             0.085874     -0.085497     -0.038638
H             0.349181     -0.239481      0.245544
O            -0.188597     -0.247358     -0.085554
O            -0.290756     -0.076026      0.160919
O             0.190475     -0.091581      0.112462
O             0.318655     -0.249992     -0.155931
O            -0.054243     -0.234585      0.148571
O            -0.435538     -0.076075     -0.106958
O             0.057911     -0.091008     -0.141523
O             0.438379     -0.227717      0.101263
Fe            0.143103      0.108255      0.217444
Fe            0.351023      0.261223     -0.026558
Fe           -0.143929      0.237551     -0.230596
Fe           -0.362057      0.083148      0.012085
H            -0.080459      0.103384      0.046196
H            -0.423717      0.255656     -0.214993
H             0.078952      0.253460     -0.049961
H             0.405308      0.093116      0.195772
O            -0.187758      0.081327     -0.093628
O            -0.306777      0.234305      0.161785
O             0.192734      0.261711      0.089602
O             0.311045      0.086072     -0.148251
O            -0.054453      0.104652      0.147031
O            -0.449582      0.264131     -0.115897
O             0.059095      0.235931     -0.151295
O             0.444130      0.089355      0.097394
Fe            0.137032      0.426921      0.241519
Fe            0.362994     -0.405492     -0.025815
Fe           -0.138203     -0.428364     -0.224222
Fe           -0.352202      0.404727      0.023033
H            -0.090105      0.416787      0.050505
H            -0.414635     -0.410253     -0.212343
H             0.090269     -0.429770     -0.041914
H             0.407446      0.399032      0.199231
O            -0.191727      0.404808     -0.086817
O            -0.305324     -0.414700      0.156149
O             0.189518     -0.414116      0.104623
O             0.309229      0.435884     -0.153751
O            -0.057620      0.431585      0.149940
O            -0.442058     -0.403581     -0.110715
O             0.053105     -0.441751     -0.138488
O             0.444826      0.414660      0.101180
Fe            0.147238     -0.254693     -0.263074
Fe            0.340771     -0.093493      0.470207
Fe           -0.120586     -0.070959      0.279947
Fe           -0.354184     -0.257702     -0.482012
H            -0.073576     -0.258849     -0.443455
H            -0.345932     -0.063519      0.251052
H             0.083326     -0.025083      0.448816
H             0.413107     -0.247621     -0.312092
O            -0.185243     -0.234381      0.409127
O            -0.316872     -0.080551     -0.354452
O             0.191324     -0.080748     -0.399431
O             0.284665     -0.249108      0.319660
O            -0.057337     -0.253561     -0.340454
O            -0.465207     -0.116057      0.373292
O             0.059580     -0.049081      0.347754
O             0.438526     -0.248274     -0.412469
Fe            0.146420      0.066628     -0.266289
Fe            0.364637      0.248119      0.481870
Fe           -0.153917      0.263145      0.275641
Fe           -0.365444      0.081672     -0.478127
H            -0.082382      0.041803     -0.454831
H            -0.399331      0.254204      0.306179
H             0.085635      0.222781      0.458345
H             0.399991      0.086689     -0.311076
O            -0.210437      0.090472      0.399732
O            -0.316396      0.248680     -0.339031
O             0.206844      0.232856     -0.398066
O             0.311586      0.079651      0.341259
O            -0.057993      0.058233     -0.353827
O            -0.444257      0.256423      0.401537
O             0.049108      0.252440      0.364129
O             0.443717      0.064495     -0.406040
Fe            0.150059      0.409776     -0.279154
Ni            0.352208     -0.426808      0.455219
Fe           -0.136482     -0.407887      0.281753
Fe           -0.354346      0.413938     -0.467966
H            -0.082000      0.418339     -0.447099
H            -0.404323     -0.436971      0.296503
H             0.086685     -0.419618      0.459520
H             0.419608      0.436534     -0.300652
O            -0.191824      0.422227      0.408947
O            -0.300087     -0.415593     -0.340584
O             0.193575     -0.412119     -0.397103
O             0.309136      0.397161      0.338590
O            -0.055586      0.409784     -0.348394
O            -0.436454     -0.434238      0.391927
O             0.046105     -0.426407      0.364311
O             0.450323      0.414025     -0.399408
H            -0.473531     -0.169034      0.283421
H             0.037075     -0.250574      0.160008
H             0.211589     -0.150638      0.200787
data_nwchem_pspw

_audit_creation_date   Sun Jan 29 16:28:28 2023
_audit_creation_method    generated by PSPW module of NWChem


_cell_length_a            10.0667
_cell_length_b             9.1552
_cell_length_c             9.2041
_cell_angle_alpha         90.0000
_cell_angle_beta          90.0000
_cell_angle_gamma         90.0000

_symmetry_space_group_name_H-M     P1  

loop_
_atom_site_type_symbol
_atom_site_fract_x
_atom_site_fract_y
_atom_site_fract_z
H             0.229119     -0.351993      0.189592
Fe            0.361368     -0.079838     -0.011561
Fe           -0.143642     -0.071293     -0.233248
Fe           -0.358536     -0.261752      0.030967
H            -0.133318     -0.259211     -0.001222
H            -0.423742     -0.074623     -0.195907
H             0.086016     -0.060016     -0.041229
H             0.361165     -0.267580      0.256418
O            -0.188783     -0.244450     -0.084272
O            -0.290800     -0.077569      0.159368
O             0.187254     -0.085314      0.103495
O             0.305326     -0.252969     -0.150165
O            -0.065140     -0.263885      0.139778
O            -0.441814     -0.088205     -0.094252
O             0.048753     -0.063782     -0.140095
O             0.454453     -0.236657      0.110262
Fe            0.135398      0.095558      0.229781
Fe            0.357640      0.254542     -0.032856
Fe           -0.142166      0.250018     -0.222159
Fe           -0.361725      0.079034      0.013871
H            -0.080299      0.064292      0.052013
H            -0.413723      0.258253     -0.213634
H             0.079112      0.277256     -0.045769
H             0.402638      0.089434      0.205696
O            -0.189087      0.093343     -0.096186
O            -0.317937      0.232568      0.166962
O             0.190005      0.246989      0.096283
O             0.312083      0.071919     -0.160287
O            -0.056655      0.072059      0.153106
O            -0.442069      0.240416     -0.110821
O             0.052010      0.260061     -0.143269
O             0.442316      0.098985      0.100599
Fe            0.143103      0.426192      0.221991
Fe            0.364590     -0.418112     -0.023716
Fe           -0.138624     -0.418578     -0.230929
Fe           -0.352399      0.394150      0.030055
H            -0.104644      0.406577      0.052748
H            -0.387196     -0.428820     -0.188254
H             0.075091     -0.385626     -0.045420
H             0.412114      0.405235      0.192530
O            -0.188946      0.427029     -0.090612
O            -0.288411     -0.429173      0.145494
O             0.198067     -0.401595      0.100171
O             0.288616      0.431621     -0.146268
O            -0.062389      0.394272      0.148850
O            -0.449318     -0.440387     -0.104408
O             0.051180     -0.389031     -0.143809
O             0.448837      0.418960      0.095949
Fe            0.154736     -0.229816     -0.269637
Fe            0.348668     -0.084916      0.465328
Fe           -0.123177     -0.101812      0.285311
Fe           -0.361585     -0.252555     -0.479396
H            -0.082352     -0.267982     -0.446389
H            -0.346313     -0.065063      0.244161
H             0.079501     -0.091178      0.456461
H             0.410651     -0.267697     -0.303455
O            -0.194222     -0.264409      0.398140
O            -0.296522     -0.094199     -0.351269
O             0.188104     -0.062544     -0.405785
O             0.306135     -0.276507      0.339229
O            -0.052342     -0.243760     -0.351844
O            -0.458368     -0.098552      0.395719
O             0.051591     -0.070110      0.358933
O             0.449135     -0.257617     -0.394381
Fe            0.151847      0.105870     -0.281239
Fe            0.351910      0.248360      0.468329
Fe           -0.153019      0.225208      0.287778
Fe           -0.363834      0.085441     -0.459843
H            -0.102857      0.092827     -0.459013
H            -0.416598      0.249851      0.304233
H             0.088605      0.259233      0.448154
H             0.411264      0.063111     -0.302416
O            -0.214438      0.068976      0.407886
O            -0.324732      0.255459     -0.338659
O             0.199062      0.271229     -0.406301
O             0.313043      0.076418      0.330961
O            -0.058396      0.094144     -0.364006
O            -0.450331      0.246544      0.406653
O             0.057356      0.252487      0.348021
O             0.434596      0.068917     -0.408294
Fe            0.144529      0.448105     -0.295332
Ni            0.357573     -0.419438      0.482080
Fe           -0.136165     -0.436465      0.283205
Fe           -0.368404      0.426073     -0.472675
H            -0.100951      0.414339     -0.460964
H            -0.407538     -0.411235      0.277780
H             0.087424     -0.395274      0.453779
H             0.406277      0.449517     -0.304347
O            -0.201802      0.399218      0.411401
O            -0.302809     -0.414245     -0.347019
O             0.201251     -0.384330     -0.410241
O             0.304765      0.402846      0.326553
O            -0.056298      0.414471     -0.361087
O            -0.442023     -0.421713      0.381540
O             0.046152     -0.435936      0.364561
O             0.439420      0.412015     -0.395054
H            -0.474296     -0.154744      0.306852
H             0.026007     -0.291544      0.151905
H             0.204053     -0.135451      0.193149
data_nwchem_pspw

_audit_creation_date   Sun Jan 29 19:29:32 2023
_audit_creation_method    generated by PSPW module of NWChem


_cell_length_a            10.0667
_cell_length_b             9.1552
_cell_length_c             9.2041
_cell_angle_alpha         90.0000
_cell_angle_beta          90.0000
_cell_angle_gamma         90.0000

_symmetry_space_group_name_H-M     P1  

loop_
_atom_site_type_symbol
_atom_site_fract_x
_atom_site_fract_y
_atom_site_fract_z
H             0.225697     -0.334140      0.182972
Fe            0.362114     -0.084070     -0.027767
Fe           -0.149849     -0.083801     -0.244590
Fe           -0.370943     -0.251754      0.036694
H            -0.136017     -0.249561     -0.025404
H            -0.428190     -0.086530     -0.210059
H             0.076679     -0.079131     -0.059960
H             0.368003     -0.257453      0.250215
O            -0.211810     -0.246905     -0.093539
O            -0.306237     -0.064645      0.156198
O             0.195977     -0.080285      0.116273
O             0.291789     -0.247250     -0.138393
O            -0.073235     -0.222290      0.133084
O            -0.445400     -0.088502     -0.107819
O             0.049993     -0.075090     -0.161114
O             0.438835     -0.246353      0.108975
Fe            0.137050      0.086928      0.231566
Fe            0.352419      0.250570     -0.001542
Fe           -0.134979      0.247070     -0.215245
Fe           -0.364731      0.099386      0.004781
H            -0.040389      0.050355      0.033993
H            -0.409335      0.259505     -0.213465
H             0.097341      0.238385     -0.049552
H             0.410551      0.075669      0.218944
O            -0.200194      0.073835     -0.104343
O            -0.316820      0.256656      0.138620
O             0.192086      0.260284      0.098772
O             0.310271      0.084762     -0.153368
O            -0.050533      0.097706      0.127632
O            -0.454235      0.240354     -0.118183
O             0.055800      0.226110     -0.152418
O             0.437500      0.081119      0.116205
Fe            0.142946      0.431186      0.230700
Fe            0.356532     -0.414121     -0.025077
Fe           -0.142949     -0.422761     -0.223223
Fe           -0.352583      0.419658      0.025975
H            -0.099726      0.430486      0.053930
H            -0.400013     -0.420155     -0.198591
H             0.066328     -0.431165     -0.051469
H             0.417259      0.440374      0.200956
O            -0.188965      0.406978     -0.079435
O            -0.294645     -0.405129      0.152355
O             0.197780     -0.406617      0.109703
O             0.308160      0.413018     -0.139954
O            -0.055315      0.432859      0.153509
O            -0.440274     -0.424297     -0.099154
O             0.045147     -0.421454     -0.151953
O             0.440144      0.415439      0.103807
Fe            0.137998     -0.253654     -0.273382
Fe            0.356098     -0.098722      0.472166
Fe           -0.136625     -0.061489      0.270017
Fe           -0.362335     -0.254759     -0.472337
H            -0.101381     -0.254557     -0.459896
H            -0.382616     -0.065515      0.235052
H             0.098907     -0.084438      0.441800
H             0.426481     -0.282171     -0.287732
O            -0.190899     -0.245413      0.411149
O            -0.313870     -0.078520     -0.350802
O             0.198838     -0.095831     -0.403523
O             0.300871     -0.252393      0.332576
O            -0.050717     -0.252324     -0.360061
O            -0.452189     -0.104344      0.379632
O             0.039711     -0.042421      0.372375
O             0.446894     -0.264256     -0.391102
Fe            0.158060      0.077062     -0.284495
Fe            0.357729      0.242093      0.454508
Fe           -0.155277      0.262319      0.265835
Fe           -0.349775      0.100629     -0.459570
H            -0.073383      0.079855     -0.458135
H            -0.415940      0.252328      0.302340
H             0.082445      0.235727      0.442341
H             0.421783      0.081371     -0.304564
O            -0.213761      0.094468      0.394435
O            -0.299627      0.259966     -0.343680
O             0.204151      0.238728     -0.422834
O             0.303116      0.065048      0.342884
O            -0.050819      0.082040     -0.357764
O            -0.445087      0.246631      0.403733
O             0.042250      0.254457      0.346857
O             0.451003      0.074743     -0.404564
Fe            0.152984      0.391781     -0.278743
Ni            0.365717     -0.425192      0.478362
Fe           -0.124560     -0.414687      0.303683
Fe           -0.361405      0.420213     -0.476278
H            -0.083336      0.401932     -0.443979
H            -0.389586     -0.424827      0.298157
H             0.105328     -0.443503      0.470002
H             0.423330      0.410207     -0.297992
O            -0.198642      0.415962      0.407753
O            -0.314694     -0.420364     -0.341914
O             0.186853     -0.436509     -0.409656
O             0.307315      0.407839      0.346823
O            -0.041899      0.403100     -0.348859
O            -0.436819     -0.422831      0.396744
O             0.056878     -0.433033      0.366714
O             0.443260      0.413223     -0.401617
H            -0.484202     -0.155318      0.291813
H             0.020392     -0.233598      0.142108
H             0.228978     -0.137983      0.197625
data_nwchem_pspw

_audit_creation_date   Sun Jan 29 22:29:59 2023
_audit_creation_method    generated by PSPW module of NWChem


_cell_length_a            10.0667
_cell_length_b             9.1552
_cell_length_c             9.2041
_cell_angle_alpha         90.0000
_cell_angle_beta          90.0000
_cell_angle_gamma         90.0000

_symmetry_space_group_name_H-M     P1  

loop_
_atom_site_type_symbol
_atom_site_fract_x
_atom_site_fract_y
_atom_site_fract_z
H             0.206859     -0.355724      0.203153
Fe            0.351540     -0.082381     -0.043118
Fe           -0.132068     -0.077622     -0.222832
Fe           -0.383822     -0.253444      0.033155
H            -0.145412     -0.267398      0.012453
H            -0.391313     -0.103824     -0.208786
H             0.063551     -0.096616     -0.043131
H             0.378290     -0.238482      0.248423
O            -0.201959     -0.245286     -0.079637
O            -0.295881     -0.067720      0.156952
O             0.196370     -0.103379      0.091822
O             0.300035     -0.253164     -0.146751
O            -0.065767     -0.270932      0.148774
O            -0.437365     -0.082499     -0.107070
O             0.042965     -0.085010     -0.144780
O             0.440608     -0.237991      0.113133
Fe            0.144537      0.073080      0.219923
Fe            0.350640      0.250247     -0.049584
Fe           -0.131943      0.256578     -0.223861
Fe           -0.345108      0.085762      0.007070
H            -0.073677      0.088694      0.047596
H            -0.393194      0.245728     -0.203730
H             0.110333      0.258030     -0.042896
H             0.411733      0.083881      0.179177
O            -0.174922      0.090107     -0.085351
O            -0.313663      0.241791      0.167856
O             0.190165      0.255379      0.087619
O             0.296595      0.079155     -0.158520
O            -0.054496      0.072409      0.146277
O            -0.443170      0.251164     -0.115290
O             0.051346      0.254233     -0.139132
O             0.440886      0.083340      0.084723
Fe            0.137933      0.410992      0.242434
Fe            0.357348     -0.417032     -0.008191
Fe           -0.155214     -0.417574     -0.218423
Fe           -0.362892      0.408836      0.020554
H            -0.081070      0.415733      0.040590
H            -0.433438     -0.408680     -0.199203
H             0.098938     -0.402687     -0.051383
H             0.411929      0.403227      0.189576
O            -0.188679      0.409270     -0.093673
O            -0.330067     -0.425376      0.162209
O             0.195439     -0.407501      0.117316
O             0.304447      0.420824     -0.152390
O            -0.052432      0.413280      0.146576
O            -0.453577     -0.421362     -0.098322
O             0.049634     -0.404456     -0.141350
O             0.452201      0.407945      0.092320
Fe            0.139639     -0.258848     -0.278872
Fe            0.344645     -0.076083      0.474198
Fe           -0.114813     -0.097584      0.288191
Fe           -0.361706     -0.241031     -0.476979
H            -0.092312     -0.265046     -0.445810
H            -0.350453     -0.037429      0.227056
H             0.096059     -0.071319      0.462369
H             0.379649     -0.249606     -0.299698
O            -0.193940     -0.254772      0.412179
O            -0.304228     -0.085065     -0.338523
O             0.184599     -0.087405     -0.398252
O             0.317289     -0.236577      0.335080
O            -0.062653     -0.250130     -0.345170
O            -0.451365     -0.088141      0.383388
O             0.066724     -0.098889      0.359086
O             0.423461     -0.229494     -0.393924
Fe            0.139587      0.086795     -0.278877
Fe            0.366085      0.264063      0.468766
Fe           -0.133386      0.242471      0.275731
Fe           -0.350402      0.086632     -0.466626
H            -0.105154      0.105422     -0.450400
H            -0.399303      0.243084      0.319495
H             0.106962      0.255183      0.454211
H             0.414646      0.082484     -0.293474
O            -0.195332      0.074472      0.399284
O            -0.300006      0.245520     -0.340368
O             0.184027      0.240641     -0.421054
O             0.306415      0.088004      0.333385
O            -0.060759      0.098390     -0.355448
O            -0.436593      0.259142      0.417029
O             0.051975      0.242173      0.359167
O             0.449689      0.091370     -0.393532
Fe            0.152517      0.414207     -0.293251
Ni            0.352212     -0.415168      0.476206
Fe           -0.152573     -0.428922      0.278768
Fe           -0.345847      0.435248     -0.465059
H            -0.072561      0.412226     -0.449828
H            -0.421505     -0.423441      0.294805
H             0.073584     -0.408250      0.454724
H             0.412038      0.433063     -0.289296
O            -0.189575      0.410189      0.413578
O            -0.307100     -0.404740     -0.335166
O             0.175049     -0.407971     -0.406696
O             0.319334      0.418505      0.333721
O            -0.048504      0.428884     -0.348674
O            -0.438820     -0.412682      0.401378
O             0.046291     -0.433215      0.357278
O             0.444046      0.426265     -0.391346
H            -0.470746     -0.136993      0.297172
H             0.025136     -0.293926      0.130584
H             0.221088     -0.174460      0.163488
data_nwchem_pspw

_audit_creation_date   Mon Jan 30 01:27:19 2023
_audit_creation_method    generated by PSPW module of NWChem


_cell_length_a            10.0667
_cell_length_b             9.1552
_cell_length_c             9.2041
_cell_angle_alpha         90.0000
_cell_angle_beta          90.0000
_cell_angle_gamma         90.0000

_symmetry_space_group_name_H-M     P1  

loop_
_atom_site_type_symbol
_atom_site_fract_x
_atom_site_fract_y
_atom_site_fract_z
H             0.207389     -0.359653      0.197317
Fe            0.371101     -0.077001     -0.009813
Fe           -0.156517     -0.085113     -0.235076
Fe           -0.360094     -0.254292      0.025212
H            -0.121999     -0.252712     -0.006104
H            -0.419370     -0.079238     -0.205441
H             0.061678     -0.072004     -0.039200
H             0.381114     -0.258965      0.263594
O            -0.185365     -0.251964     -0.093061
O            -0.297885     -0.074922      0.152971
O             0.195311     -0.081465      0.103208
O             0.301925     -0.237528     -0.140095
O            -0.051227     -0.236206      0.129226
O            -0.452318     -0.056252     -0.105351
O             0.037813     -0.090267     -0.139154
O             0.462559     -0.250851      0.107185
Fe            0.148447      0.070940      0.233799
Fe            0.345681      0.246809     -0.021804
Fe           -0.148048      0.249971     -0.222228
Fe           -0.351672      0.097881      0.025104
H            -0.094858      0.081907      0.052650
H            -0.428609      0.258815     -0.204728
H             0.093940      0.241663     -0.049072
H             0.423315      0.118488      0.196819
O            -0.199954      0.079176     -0.100301
O            -0.306354      0.271948      0.164134
O             0.202661      0.232197      0.106444
O             0.310296      0.073976     -0.153421
O            -0.064057      0.085582      0.150406
O            -0.443864      0.248805     -0.106104
O             0.058581      0.235013     -0.152795
O             0.454390      0.096079      0.101945
Fe            0.146672      0.425124      0.250201
Fe            0.348304     -0.414648     -0.024112
Fe           -0.164258     -0.430301     -0.234026
Fe           -0.363925      0.426849      0.015985
H            -0.068791      0.418187      0.040647
H            -0.428232     -0.415112     -0.212120
H             0.056656     -0.427579     -0.034580
H             0.412885      0.429650      0.204779
O            -0.198272      0.409399     -0.091201
O            -0.305845     -0.414823      0.148268
O             0.203934     -0.416698      0.105932
O             0.303294      0.417845     -0.152865
O            -0.042010      0.417035      0.143035
O            -0.458358     -0.413193     -0.109862
O             0.043174     -0.423039     -0.134490
O             0.437198      0.436779      0.100894
Fe            0.144597     -0.243226     -0.254991
Fe            0.341876     -0.098130      0.478855
Fe           -0.118259     -0.084282      0.291427
Fe           -0.354964     -0.269036     -0.490760
H            -0.077817     -0.268173     -0.448548
H            -0.363984     -0.071480      0.242634
H             0.095089     -0.096520      0.466656
H             0.408796     -0.269907     -0.311502
O            -0.195002     -0.250546      0.400751
O            -0.320240     -0.096314     -0.348046
O             0.183244     -0.088177     -0.398615
O             0.301058     -0.236750      0.321227
O            -0.062107     -0.259447     -0.344806
O            -0.449278     -0.083088      0.375661
O             0.048631     -0.062272      0.373503
O             0.442966     -0.257137     -0.410969
Fe            0.139141      0.077636     -0.275453
Fe            0.357493      0.260726      0.475180
Fe           -0.147971      0.259568      0.279026
Fe           -0.355905      0.070966     -0.473220
H            -0.105140      0.074891     -0.452102
H            -0.412785      0.250618      0.286748
H             0.076695      0.228741      0.457268
H             0.409780      0.066441     -0.292037
O            -0.193823      0.076823      0.404362
O            -0.298212      0.244753     -0.358677
O             0.185587      0.242756     -0.408685
O             0.322247      0.082835      0.345594
O            -0.067644      0.077259     -0.353332
O            -0.447206      0.244237      0.388913
O             0.051301      0.250931      0.355556
O             0.449628      0.058952     -0.386483
Fe            0.159682      0.429856     -0.286410
Ni            0.363892     -0.418420      0.473133
Fe           -0.128893     -0.414675      0.264989
Fe           -0.351997      0.410767     -0.492520
H            -0.074460      0.436325     -0.442536
H            -0.408971     -0.418442      0.279570
H             0.087591     -0.393674      0.451130
H             0.420757      0.416320     -0.296473
O            -0.190283      0.424819      0.401051
O            -0.321735     -0.415100     -0.351447
O             0.184224     -0.400139     -0.405273
O             0.316386      0.411347      0.339097
O            -0.045706      0.421723     -0.344398
O            -0.444164     -0.406389      0.383900
O             0.049178     -0.414598      0.356438
O             0.443135      0.410746     -0.397692
H             0.482313     -0.034529      0.322881
H             0.041757     -0.245200      0.116258
H             0.232280     -0.149249      0.174671