data_nwchem_pspw

_audit_creation_date   Mon Aug 26 14:02:15 2024
_audit_creation_method    generated by PSPW module of NWChem


_cell_length_a            10.0667
_cell_length_b             9.1552
_cell_length_c             9.2041
_cell_angle_alpha         90.0000
_cell_angle_beta          90.0000
_cell_angle_gamma         90.0000

_symmetry_space_group_name_H-M     P1  

loop_
_atom_site_type_symbol
_atom_site_fract_x
_atom_site_fract_y
_atom_site_fract_z
Fe            0.146735     -0.250000      0.224756
Fe            0.353175     -0.083327     -0.025375
Fe           -0.146825     -0.083327     -0.224625
Fe           -0.353265     -0.250000      0.025244
H            -0.085221     -0.250000      0.049134
H            -0.414737     -0.083030     -0.201101
H             0.085263     -0.083030     -0.048899
H             0.414779     -0.250000      0.200866
O            -0.196748     -0.250000     -0.095276
O            -0.303195     -0.083277      0.154599
O             0.196805     -0.083277      0.095401
O             0.303252     -0.250000     -0.154724
O            -0.053396     -0.250000      0.148894
O            -0.446594     -0.082953     -0.101355
O             0.053406     -0.082954     -0.148645
O             0.446604     -0.250000      0.101106
Fe            0.146825      0.083327      0.224625
Fe            0.353265      0.250000     -0.025244
Fe           -0.146735      0.250000     -0.224756
Fe           -0.353175      0.083327      0.025375
H            -0.085263      0.083030      0.048899
H            -0.414779      0.250000     -0.200866
H             0.085221      0.250000     -0.049134
H             0.414737      0.083030      0.201101
O            -0.196805      0.083277     -0.095401
O            -0.303252      0.250000      0.154724
O             0.196748      0.250000      0.095276
O             0.303195      0.083277     -0.154599
O            -0.053406      0.082954      0.148645
O            -0.446604      0.250000     -0.101106
O             0.053396      0.250000     -0.148894
O             0.446594      0.082953      0.101355
Fe            0.146825      0.416673      0.224625
Fe            0.353175     -0.416673     -0.025375
Fe           -0.146825     -0.416673     -0.224625
Lu           -0.353175      0.416673      0.025375
H            -0.085263      0.416970      0.048899
H            -0.414737     -0.416970     -0.201101
H             0.085263     -0.416970     -0.048899
H             0.414737      0.416970      0.201101
O            -0.196805      0.416723     -0.095401
O            -0.303195     -0.416723      0.154599
O             0.196805     -0.416723      0.095401
O             0.303195      0.416723     -0.154599
O            -0.053406      0.417047      0.148645
O            -0.446594     -0.417047     -0.101355
O             0.053406     -0.417047     -0.148645
O             0.446594      0.417046      0.101355
Fe            0.146735     -0.250000     -0.275244
Fe            0.353175     -0.083327      0.474625
Fe           -0.146825     -0.083327      0.275375
Fe           -0.353265     -0.250000     -0.474756
H            -0.085221     -0.250000     -0.450866
H            -0.414737     -0.083030      0.298899
H             0.085263     -0.083030      0.451101
H             0.414779     -0.250000     -0.299134
O            -0.196748     -0.250000      0.404724
O            -0.303195     -0.083277     -0.345401
O             0.196805     -0.083277     -0.404599
O             0.303252     -0.250000      0.345276
O            -0.053396     -0.250000     -0.351106
O            -0.446594     -0.082953      0.398645
O             0.053406     -0.082954      0.351355
O             0.446604     -0.250000     -0.398894
Fe            0.146825      0.083327     -0.275375
Fe            0.353265      0.250000      0.474756
Fe           -0.146735      0.250000      0.275244
Fe           -0.353175      0.083327     -0.474625
H            -0.085263      0.083030     -0.451101
H            -0.414779      0.250000      0.299134
H             0.085221      0.250000      0.450866
H             0.414737      0.083030     -0.298899
O            -0.196805      0.083277      0.404599
O            -0.303252      0.250000     -0.345276
O             0.196748      0.250000     -0.404724
O             0.303195      0.083277      0.345401
O            -0.053406      0.082954     -0.351355
O            -0.446604      0.250000      0.398894
O             0.053396      0.250000      0.351106
O             0.446594      0.082953     -0.398645
Fe            0.146825      0.416673     -0.275375
Lu            0.353175     -0.416673      0.474625
Fe           -0.146825     -0.416673      0.275375
Fe           -0.353175      0.416673     -0.474625
H            -0.085263      0.416970     -0.451101
H            -0.414737     -0.416970      0.298899
H             0.085263     -0.416970      0.451101
H             0.414737      0.416970     -0.298899
O            -0.196805      0.416723      0.404599
O            -0.303195     -0.416723     -0.345401
O             0.196805     -0.416723     -0.404599
O             0.303195      0.416723      0.345401
O            -0.053406      0.417047     -0.351355
O            -0.446594     -0.417047      0.398645
O             0.053406     -0.417047      0.351355
O             0.446594      0.417046     -0.398645
data_nwchem_pspw

_audit_creation_date   Mon Aug 26 14:11:53 2024
_audit_creation_method    generated by PSPW module of NWChem


_cell_length_a            10.0667
_cell_length_b             9.1552
_cell_length_c             9.2041
_cell_angle_alpha         90.0000
_cell_angle_beta          90.0000
_cell_angle_gamma         90.0000

_symmetry_space_group_name_H-M     P1  

loop_
_atom_site_type_symbol
_atom_site_fract_x
_atom_site_fract_y
_atom_site_fract_z
Fe            0.146735     -0.250000      0.224756
Fe            0.353175     -0.083327     -0.025375
Fe           -0.146825     -0.083327     -0.224625
Fe           -0.353265     -0.250000      0.025244
H            -0.085221     -0.250000      0.049134
H            -0.414737     -0.083030     -0.201101
H             0.085263     -0.083030     -0.048899
H             0.414779     -0.250000      0.200866
O            -0.196748     -0.250000     -0.095276
O            -0.303195     -0.083277      0.154599
O             0.196805     -0.083277      0.095401
O             0.303252     -0.250000     -0.154724
O            -0.053396     -0.250000      0.148894
O            -0.446594     -0.082953     -0.101355
O             0.053406     -0.082954     -0.148645
O             0.446604     -0.250000      0.101106
Fe            0.146825      0.083327      0.224625
Fe            0.353265      0.250000     -0.025244
Fe           -0.146735      0.250000     -0.224756
Fe           -0.353175      0.083327      0.025375
H            -0.085263      0.083030      0.048899
H            -0.414779      0.250000     -0.200866
H             0.085221      0.250000     -0.049134
H             0.414737      0.083030      0.201101
O            -0.196805      0.083277     -0.095401
O            -0.303252      0.250000      0.154724
O             0.196748      0.250000      0.095276
O             0.303195      0.083277     -0.154599
O            -0.053406      0.082954      0.148645
O            -0.446604      0.250000     -0.101106
O             0.053396      0.250000     -0.148894
O             0.446594      0.082953      0.101355
Fe            0.146825      0.416673      0.224625
Fe            0.353175     -0.416673     -0.025375
Fe           -0.146825     -0.416673     -0.224625
Lu           -0.353175      0.416673      0.025375
H            -0.085263      0.416970      0.048899
H            -0.414737     -0.416970     -0.201101
H             0.085263     -0.416970     -0.048899
H             0.414737      0.416970      0.201101
O            -0.196805      0.416723     -0.095401
O            -0.303195     -0.416723      0.154599
O             0.196805     -0.416723      0.095401
O             0.303195      0.416723     -0.154599
O            -0.053406      0.417047      0.148645
O            -0.446594     -0.417047     -0.101355
O             0.053406     -0.417047     -0.148645
O             0.446594      0.417046      0.101355
Fe            0.146735     -0.250000     -0.275244
Fe            0.353175     -0.083327      0.474625
Fe           -0.146825     -0.083327      0.275375
Fe           -0.353265     -0.250000     -0.474756
H            -0.085221     -0.250000     -0.450866
H            -0.414737     -0.083030      0.298899
H             0.085263     -0.083030      0.451101
H             0.414779     -0.250000     -0.299134
O            -0.196748     -0.250000      0.404724
O            -0.303195     -0.083277     -0.345401
O             0.196805     -0.083277     -0.404599
O             0.303252     -0.250000      0.345276
O            -0.053396     -0.250000     -0.351106
O            -0.446594     -0.082953      0.398645
O             0.053406     -0.082954      0.351355
O             0.446604     -0.250000     -0.398894
Fe            0.146825      0.083327     -0.275375
Fe            0.353265      0.250000      0.474756
Fe           -0.146735      0.250000      0.275244
Fe           -0.353175      0.083327     -0.474625
H            -0.085263      0.083030     -0.451101
H            -0.414779      0.250000      0.299134
H             0.085221      0.250000      0.450866
H             0.414737      0.083030     -0.298899
O            -0.196805      0.083277      0.404599
O            -0.303252      0.250000     -0.345276
O             0.196748      0.250000     -0.404724
O             0.303195      0.083277      0.345401
O            -0.053406      0.082954     -0.351355
O            -0.446604      0.250000      0.398894
O             0.053396      0.250000      0.351106
O             0.446594      0.082953     -0.398645
Fe            0.146825      0.416673     -0.275375
Lu            0.353175     -0.416673      0.474625
Fe           -0.146825     -0.416673      0.275375
Fe           -0.353175      0.416673     -0.474625
H            -0.085263      0.416970     -0.451101
H            -0.414737     -0.416970      0.298899
H             0.085263     -0.416970      0.451101
H             0.414737      0.416970     -0.298899
O            -0.196805      0.416723      0.404599
O            -0.303195     -0.416723     -0.345401
O             0.196805     -0.416723     -0.404599
O             0.303195      0.416723      0.345401
O            -0.053406      0.417047     -0.351355
O            -0.446594     -0.417047      0.398645
O             0.053406     -0.417047      0.351355
O             0.446594      0.417046     -0.398645
data_nwchem_pspw

_audit_creation_date   Mon Aug 26 14:21:01 2024
_audit_creation_method    generated by PSPW module of NWChem


_cell_length_a            10.0667
_cell_length_b             9.1552
_cell_length_c             9.2041
_cell_angle_alpha         90.0000
_cell_angle_beta          90.0000
_cell_angle_gamma         90.0000

_symmetry_space_group_name_H-M     P1  

loop_
_atom_site_type_symbol
_atom_site_fract_x
_atom_site_fract_y
_atom_site_fract_z
Fe            0.146735     -0.250000      0.224756
Fe            0.353175     -0.083327     -0.025375
Fe           -0.146825     -0.083327     -0.224625
Fe           -0.353265     -0.250000      0.025244
H            -0.085221     -0.250000      0.049134
H            -0.414737     -0.083030     -0.201101
H             0.085263     -0.083030     -0.048899
H             0.414779     -0.250000      0.200866
O            -0.196748     -0.250000     -0.095276
O            -0.303195     -0.083277      0.154599
O             0.196805     -0.083277      0.095401
O             0.303252     -0.250000     -0.154724
O            -0.053396     -0.250000      0.148894
O            -0.446594     -0.082953     -0.101355
O             0.053406     -0.082954     -0.148645
O             0.446604     -0.250000      0.101106
Fe            0.146825      0.083327      0.224625
Fe            0.353265      0.250000     -0.025244
Fe           -0.146735      0.250000     -0.224756
Fe           -0.353175      0.083327      0.025375
H            -0.085263      0.083030      0.048899
H            -0.414779      0.250000     -0.200866
H             0.085221      0.250000     -0.049134
H             0.414737      0.083030      0.201101
O            -0.196805      0.083277     -0.095401
O            -0.303252      0.250000      0.154724
O             0.196748      0.250000      0.095276
O             0.303195      0.083277     -0.154599
O            -0.053406      0.082954      0.148645
O            -0.446604      0.250000     -0.101106
O             0.053396      0.250000     -0.148894
O             0.446594      0.082953      0.101355
Fe            0.146825      0.416673      0.224625
Fe            0.353175     -0.416673     -0.025375
Fe           -0.146825     -0.416673     -0.224625
Lu           -0.353175      0.416673      0.025375
H            -0.085263      0.416970      0.048899
H            -0.414737     -0.416970     -0.201101
H             0.085263     -0.416970     -0.048899
H             0.414737      0.416970      0.201101
O            -0.196805      0.416723     -0.095401
O            -0.303195     -0.416723      0.154599
O             0.196805     -0.416723      0.095401
O             0.303195      0.416723     -0.154599
O            -0.053406      0.417047      0.148645
O            -0.446594     -0.417047     -0.101355
O             0.053406     -0.417047     -0.148645
O             0.446594      0.417046      0.101355
Fe            0.146735     -0.250000     -0.275244
Fe            0.353175     -0.083327      0.474625
Fe           -0.146825     -0.083327      0.275375
Fe           -0.353265     -0.250000     -0.474756
H            -0.085221     -0.250000     -0.450866
H            -0.414737     -0.083030      0.298899
H             0.085263     -0.083030      0.451101
H             0.414779     -0.250000     -0.299134
O            -0.196748     -0.250000      0.404724
O            -0.303195     -0.083277     -0.345401
O             0.196805     -0.083277     -0.404599
O             0.303252     -0.250000      0.345276
O            -0.053396     -0.250000     -0.351106
O            -0.446594     -0.082953      0.398645
O             0.053406     -0.082954      0.351355
O             0.446604     -0.250000     -0.398894
Fe            0.146825      0.083327     -0.275375
Fe            0.353265      0.250000      0.474756
Fe           -0.146735      0.250000      0.275244
Fe           -0.353175      0.083327     -0.474625
H            -0.085263      0.083030     -0.451101
H            -0.414779      0.250000      0.299134
H             0.085221      0.250000      0.450866
H             0.414737      0.083030     -0.298899
O            -0.196805      0.083277      0.404599
O            -0.303252      0.250000     -0.345276
O             0.196748      0.250000     -0.404724
O             0.303195      0.083277      0.345401
O            -0.053406      0.082954     -0.351355
O            -0.446604      0.250000      0.398894
O             0.053396      0.250000      0.351106
O             0.446594      0.082953     -0.398645
Fe            0.146825      0.416673     -0.275375
Lu            0.353175     -0.416673      0.474625
Fe           -0.146825     -0.416673      0.275375
Fe           -0.353175      0.416673     -0.474625
H            -0.085263      0.416970     -0.451101
H            -0.414737     -0.416970      0.298899
H             0.085263     -0.416970      0.451101
H             0.414737      0.416970     -0.298899
O            -0.196805      0.416723      0.404599
O            -0.303195     -0.416723     -0.345401
O             0.196805     -0.416723     -0.404599
O             0.303195      0.416723      0.345401
O            -0.053406      0.417047     -0.351355
O            -0.446594     -0.417047      0.398645
O             0.053406     -0.417047      0.351355
O             0.446594      0.417046     -0.398645
data_nwchem_pspw

_audit_creation_date   Mon Aug 26 16:05:21 2024
_audit_creation_method    generated by PSPW module of NWChem


_cell_length_a            10.0667
_cell_length_b             9.1552
_cell_length_c             9.2041
_cell_angle_alpha         90.0000
_cell_angle_beta          90.0000
_cell_angle_gamma         90.0000

_symmetry_space_group_name_H-M     P1  

loop_
_atom_site_type_symbol
_atom_site_fract_x
_atom_site_fract_y
_atom_site_fract_z
Fe            0.146735     -0.250000      0.224756
Fe            0.353175     -0.083327     -0.025375
Fe           -0.146825     -0.083327     -0.224625
Fe           -0.353265     -0.250000      0.025244
H            -0.085221     -0.250000      0.049134
H            -0.414737     -0.083030     -0.201101
H             0.085263     -0.083030     -0.048899
H             0.414779     -0.250000      0.200866
O            -0.196748     -0.250000     -0.095276
O            -0.303195     -0.083277      0.154599
O             0.196805     -0.083277      0.095401
O             0.303252     -0.250000     -0.154724
O            -0.053396     -0.250000      0.148894
O            -0.446594     -0.082953     -0.101355
O             0.053406     -0.082954     -0.148645
O             0.446604     -0.250000      0.101106
Fe            0.146825      0.083327      0.224625
Fe            0.353265      0.250000     -0.025244
Fe           -0.146735      0.250000     -0.224756
Fe           -0.353175      0.083327      0.025375
H            -0.085263      0.083030      0.048899
H            -0.414779      0.250000     -0.200866
H             0.085221      0.250000     -0.049134
H             0.414737      0.083030      0.201101
O            -0.196805      0.083277     -0.095401
O            -0.303252      0.250000      0.154724
O             0.196748      0.250000      0.095276
O             0.303195      0.083277     -0.154599
O            -0.053406      0.082954      0.148645
O            -0.446604      0.250000     -0.101106
O             0.053396      0.250000     -0.148894
O             0.446594      0.082953      0.101355
Fe            0.146825      0.416673      0.224625
Fe            0.353175     -0.416673     -0.025375
Fe           -0.146825     -0.416673     -0.224625
Lu           -0.353175      0.416673      0.025375
H            -0.085263      0.416970      0.048899
H            -0.414737     -0.416970     -0.201101
H             0.085263     -0.416970     -0.048899
H             0.414737      0.416970      0.201101
O            -0.196805      0.416723     -0.095401
O            -0.303195     -0.416723      0.154599
O             0.196805     -0.416723      0.095401
O             0.303195      0.416723     -0.154599
O            -0.053406      0.417047      0.148645
O            -0.446594     -0.417047     -0.101355
O             0.053406     -0.417047     -0.148645
O             0.446594      0.417046      0.101355
Fe            0.146735     -0.250000     -0.275244
Fe            0.353175     -0.083327      0.474625
Fe           -0.146825     -0.083327      0.275375
Fe           -0.353265     -0.250000     -0.474756
H            -0.085221     -0.250000     -0.450866
H            -0.414737     -0.083030      0.298899
H             0.085263     -0.083030      0.451101
H             0.414779     -0.250000     -0.299134
O            -0.196748     -0.250000      0.404724
O            -0.303195     -0.083277     -0.345401
O             0.196805     -0.083277     -0.404599
O             0.303252     -0.250000      0.345276
O            -0.053396     -0.250000     -0.351106
O            -0.446594     -0.082953      0.398645
O             0.053406     -0.082954      0.351355
O             0.446604     -0.250000     -0.398894
Fe            0.146825      0.083327     -0.275375
Fe            0.353265      0.250000      0.474756
Fe           -0.146735      0.250000      0.275244
Fe           -0.353175      0.083327     -0.474625
H            -0.085263      0.083030     -0.451101
H            -0.414779      0.250000      0.299134
H             0.085221      0.250000      0.450866
H             0.414737      0.083030     -0.298899
O            -0.196805      0.083277      0.404599
O            -0.303252      0.250000     -0.345276
O             0.196748      0.250000     -0.404724
O             0.303195      0.083277      0.345401
O            -0.053406      0.082954     -0.351355
O            -0.446604      0.250000      0.398894
O             0.053396      0.250000      0.351106
O             0.446594      0.082953     -0.398645
Fe            0.146825      0.416673     -0.275375
Lu            0.353175     -0.416673      0.474625
Fe           -0.146825     -0.416673      0.275375
Fe           -0.353175      0.416673     -0.474625
H            -0.085263      0.416970     -0.451101
H            -0.414737     -0.416970      0.298899
H             0.085263     -0.416970      0.451101
H             0.414737      0.416970     -0.298899
O            -0.196805      0.416723      0.404599
O            -0.303195     -0.416723     -0.345401
O             0.196805     -0.416723     -0.404599
O             0.303195      0.416723      0.345401
O            -0.053406      0.417047     -0.351355
O            -0.446594     -0.417047      0.398645
O             0.053406     -0.417047      0.351355
O             0.446594      0.417046     -0.398645
data_nwchem_pspw

_audit_creation_date   Mon Aug 26 17:44:08 2024
_audit_creation_method    generated by PSPW module of NWChem


_cell_length_a            10.0667
_cell_length_b             9.1552
_cell_length_c             9.2041
_cell_angle_alpha         90.0000
_cell_angle_beta          90.0000
_cell_angle_gamma         90.0000

_symmetry_space_group_name_H-M     P1  

loop_
_atom_site_type_symbol
_atom_site_fract_x
_atom_site_fract_y
_atom_site_fract_z
Fe            0.146735     -0.250000      0.224756
Fe            0.353175     -0.083327     -0.025375
Fe           -0.146825     -0.083327     -0.224625
Fe           -0.353265     -0.250000      0.025244
H            -0.085221     -0.250000      0.049134
H            -0.414737     -0.083030     -0.201101
H             0.085263     -0.083030     -0.048899
H             0.414779     -0.250000      0.200866
O            -0.196748     -0.250000     -0.095276
O            -0.303195     -0.083277      0.154599
O             0.196805     -0.083277      0.095401
O             0.303252     -0.250000     -0.154724
O            -0.053396     -0.250000      0.148894
O            -0.446594     -0.082953     -0.101355
O             0.053406     -0.082954     -0.148645
O             0.446604     -0.250000      0.101106
Fe            0.146825      0.083327      0.224625
Fe            0.353265      0.250000     -0.025244
Fe           -0.146735      0.250000     -0.224756
Fe           -0.353175      0.083327      0.025375
H            -0.085263      0.083030      0.048899
H            -0.414779      0.250000     -0.200866
H             0.085221      0.250000     -0.049134
H             0.414737      0.083030      0.201101
O            -0.196805      0.083277     -0.095401
O            -0.303252      0.250000      0.154724
O             0.196748      0.250000      0.095276
O             0.303195      0.083277     -0.154599
O            -0.053406      0.082954      0.148645
O            -0.446604      0.250000     -0.101106
O             0.053396      0.250000     -0.148894
O             0.446594      0.082953      0.101355
Fe            0.146825      0.416673      0.224625
Fe            0.353175     -0.416673     -0.025375
Fe           -0.146825     -0.416673     -0.224625
Lu           -0.353175      0.416673      0.025375
H            -0.085263      0.416970      0.048899
H            -0.414737     -0.416970     -0.201101
H             0.085263     -0.416970     -0.048899
H             0.414737      0.416970      0.201101
O            -0.196805      0.416723     -0.095401
O            -0.303195     -0.416723      0.154599
O             0.196805     -0.416723      0.095401
O             0.303195      0.416723     -0.154599
O            -0.053406      0.417047      0.148645
O            -0.446594     -0.417047     -0.101355
O             0.053406     -0.417047     -0.148645
O             0.446594      0.417046      0.101355
Fe            0.146735     -0.250000     -0.275244
Fe            0.353175     -0.083327      0.474625
Fe           -0.146825     -0.083327      0.275375
Fe           -0.353265     -0.250000     -0.474756
H            -0.085221     -0.250000     -0.450866
H            -0.414737     -0.083030      0.298899
H             0.085263     -0.083030      0.451101
H             0.414779     -0.250000     -0.299134
O            -0.196748     -0.250000      0.404724
O            -0.303195     -0.083277     -0.345401
O             0.196805     -0.083277     -0.404599
O             0.303252     -0.250000      0.345276
O            -0.053396     -0.250000     -0.351106
O            -0.446594     -0.082953      0.398645
O             0.053406     -0.082954      0.351355
O             0.446604     -0.250000     -0.398894
Fe            0.146825      0.083327     -0.275375
Fe            0.353265      0.250000      0.474756
Fe           -0.146735      0.250000      0.275244
Fe           -0.353175      0.083327     -0.474625
H            -0.085263      0.083030     -0.451101
H            -0.414779      0.250000      0.299134
H             0.085221      0.250000      0.450866
H             0.414737      0.083030     -0.298899
O            -0.196805      0.083277      0.404599
O            -0.303252      0.250000     -0.345276
O             0.196748      0.250000     -0.404724
O             0.303195      0.083277      0.345401
O            -0.053406      0.082954     -0.351355
O            -0.446604      0.250000      0.398894
O             0.053396      0.250000      0.351106
O             0.446594      0.082953     -0.398645
Fe            0.146825      0.416673     -0.275375
Lu            0.353175     -0.416673      0.474625
Fe           -0.146825     -0.416673      0.275375
Fe           -0.353175      0.416673     -0.474625
H            -0.085263      0.416970     -0.451101
H            -0.414737     -0.416970      0.298899
H             0.085263     -0.416970      0.451101
H             0.414737      0.416970     -0.298899
O            -0.196805      0.416723      0.404599
O            -0.303195     -0.416723     -0.345401
O             0.196805     -0.416723     -0.404599
O             0.303195      0.416723      0.345401
O            -0.053406      0.417047     -0.351355
O            -0.446594     -0.417047      0.398645
O             0.053406     -0.417047      0.351355
O             0.446594      0.417046     -0.398645
data_nwchem_pspw

_audit_creation_date   Mon Aug 26 19:13:33 2024
_audit_creation_method    generated by PSPW module of NWChem


_cell_length_a            10.0667
_cell_length_b             9.1552
_cell_length_c             9.2041
_cell_angle_alpha         90.0000
_cell_angle_beta          90.0000
_cell_angle_gamma         90.0000

_symmetry_space_group_name_H-M     P1  

loop_
_atom_site_type_symbol
_atom_site_fract_x
_atom_site_fract_y
_atom_site_fract_z
Fe            0.146735     -0.250000      0.224756
Fe            0.353175     -0.083327     -0.025375
Fe           -0.146825     -0.083327     -0.224625
Fe           -0.353265     -0.250000      0.025244
H            -0.085221     -0.250000      0.049134
H            -0.414737     -0.083030     -0.201101
H             0.085263     -0.083030     -0.048899
H             0.414779     -0.250000      0.200866
O            -0.196748     -0.250000     -0.095276
O            -0.303195     -0.083277      0.154599
O             0.196805     -0.083277      0.095401
O             0.303252     -0.250000     -0.154724
O            -0.053396     -0.250000      0.148894
O            -0.446594     -0.082953     -0.101355
O             0.053406     -0.082954     -0.148645
O             0.446604     -0.250000      0.101106
Fe            0.146825      0.083327      0.224625
Fe            0.353265      0.250000     -0.025244
Fe           -0.146735      0.250000     -0.224756
Fe           -0.353175      0.083327      0.025375
H            -0.085263      0.083030      0.048899
H            -0.414779      0.250000     -0.200866
H             0.085221      0.250000     -0.049134
H             0.414737      0.083030      0.201101
O            -0.196805      0.083277     -0.095401
O            -0.303252      0.250000      0.154724
O             0.196748      0.250000      0.095276
O             0.303195      0.083277     -0.154599
O            -0.053406      0.082954      0.148645
O            -0.446604      0.250000     -0.101106
O             0.053396      0.250000     -0.148894
O             0.446594      0.082953      0.101355
Fe            0.146825      0.416673      0.224625
Fe            0.353175     -0.416673     -0.025375
Fe           -0.146825     -0.416673     -0.224625
Lu           -0.353175      0.416673      0.025375
H            -0.085263      0.416970      0.048899
H            -0.414737     -0.416970     -0.201101
H             0.085263     -0.416970     -0.048899
H             0.414737      0.416970      0.201101
O            -0.196805      0.416723     -0.095401
O            -0.303195     -0.416723      0.154599
O             0.196805     -0.416723      0.095401
O             0.303195      0.416723     -0.154599
O            -0.053406      0.417047      0.148645
O            -0.446594     -0.417047     -0.101355
O             0.053406     -0.417047     -0.148645
O             0.446594      0.417046      0.101355
Fe            0.146735     -0.250000     -0.275244
Fe            0.353175     -0.083327      0.474625
Fe           -0.146825     -0.083327      0.275375
Fe           -0.353265     -0.250000     -0.474756
H            -0.085221     -0.250000     -0.450866
H            -0.414737     -0.083030      0.298899
H             0.085263     -0.083030      0.451101
H             0.414779     -0.250000     -0.299134
O            -0.196748     -0.250000      0.404724
O            -0.303195     -0.083277     -0.345401
O             0.196805     -0.083277     -0.404599
O             0.303252     -0.250000      0.345276
O            -0.053396     -0.250000     -0.351106
O            -0.446594     -0.082953      0.398645
O             0.053406     -0.082954      0.351355
O             0.446604     -0.250000     -0.398894
Fe            0.146825      0.083327     -0.275375
Fe            0.353265      0.250000      0.474756
Fe           -0.146735      0.250000      0.275244
Fe           -0.353175      0.083327     -0.474625
H            -0.085263      0.083030     -0.451101
H            -0.414779      0.250000      0.299134
H             0.085221      0.250000      0.450866
H             0.414737      0.083030     -0.298899
O            -0.196805      0.083277      0.404599
O            -0.303252      0.250000     -0.345276
O             0.196748      0.250000     -0.404724
O             0.303195      0.083277      0.345401
O            -0.053406      0.082954     -0.351355
O            -0.446604      0.250000      0.398894
O             0.053396      0.250000      0.351106
O             0.446594      0.082953     -0.398645
Fe            0.146825      0.416673     -0.275375
Lu            0.353175     -0.416673      0.474625
Fe           -0.146825     -0.416673      0.275375
Fe           -0.353175      0.416673     -0.474625
H            -0.085263      0.416970     -0.451101
H            -0.414737     -0.416970      0.298899
H             0.085263     -0.416970      0.451101
H             0.414737      0.416970     -0.298899
O            -0.196805      0.416723      0.404599
O            -0.303195     -0.416723     -0.345401
O             0.196805     -0.416723     -0.404599
O             0.303195      0.416723      0.345401
O            -0.053406      0.417047     -0.351355
O            -0.446594     -0.417047      0.398645
O             0.053406     -0.417047      0.351355
O             0.446594      0.417046     -0.398645
data_nwchem_pspw

_audit_creation_date   Mon Aug 26 20:20:32 2024
_audit_creation_method    generated by PSPW module of NWChem


_cell_length_a            10.0667
_cell_length_b             9.1552
_cell_length_c             9.2041
_cell_angle_alpha         90.0000
_cell_angle_beta          90.0000
_cell_angle_gamma         90.0000

_symmetry_space_group_name_H-M     P1  

loop_
_atom_site_type_symbol
_atom_site_fract_x
_atom_site_fract_y
_atom_site_fract_z
Fe            0.146735     -0.250000      0.224756
Fe            0.353175     -0.083327     -0.025375
Fe           -0.146825     -0.083327     -0.224625
Fe           -0.353265     -0.250000      0.025244
H            -0.085221     -0.250000      0.049134
H            -0.414737     -0.083030     -0.201101
H             0.085263     -0.083030     -0.048899
H             0.414779     -0.250000      0.200866
O            -0.196748     -0.250000     -0.095276
O            -0.303195     -0.083277      0.154599
O             0.196805     -0.083277      0.095401
O             0.303252     -0.250000     -0.154724
O            -0.053396     -0.250000      0.148894
O            -0.446594     -0.082953     -0.101355
O             0.053406     -0.082954     -0.148645
O             0.446604     -0.250000      0.101106
Fe            0.146825      0.083327      0.224625
Fe            0.353265      0.250000     -0.025244
Fe           -0.146735      0.250000     -0.224756
Fe           -0.353175      0.083327      0.025375
H            -0.085263      0.083030      0.048899
H            -0.414779      0.250000     -0.200866
H             0.085221      0.250000     -0.049134
H             0.414737      0.083030      0.201101
O            -0.196805      0.083277     -0.095401
O            -0.303252      0.250000      0.154724
O             0.196748      0.250000      0.095276
O             0.303195      0.083277     -0.154599
O            -0.053406      0.082954      0.148645
O            -0.446604      0.250000     -0.101106
O             0.053396      0.250000     -0.148894
O             0.446594      0.082953      0.101355
Fe            0.146825      0.416673      0.224625
Fe            0.353175     -0.416673     -0.025375
Fe           -0.146825     -0.416673     -0.224625
Lu           -0.353175      0.416673      0.025375
H            -0.085263      0.416970      0.048899
H            -0.414737     -0.416970     -0.201101
H             0.085263     -0.416970     -0.048899
H             0.414737      0.416970      0.201101
O            -0.196805      0.416723     -0.095401
O            -0.303195     -0.416723      0.154599
O             0.196805     -0.416723      0.095401
O             0.303195      0.416723     -0.154599
O            -0.053406      0.417047      0.148645
O            -0.446594     -0.417047     -0.101355
O             0.053406     -0.417047     -0.148645
O             0.446594      0.417046      0.101355
Fe            0.146735     -0.250000     -0.275244
Fe            0.353175     -0.083327      0.474625
Fe           -0.146825     -0.083327      0.275375
Fe           -0.353265     -0.250000     -0.474756
H            -0.085221     -0.250000     -0.450866
H            -0.414737     -0.083030      0.298899
H             0.085263     -0.083030      0.451101
H             0.414779     -0.250000     -0.299134
O            -0.196748     -0.250000      0.404724
O            -0.303195     -0.083277     -0.345401
O             0.196805     -0.083277     -0.404599
O             0.303252     -0.250000      0.345276
O            -0.053396     -0.250000     -0.351106
O            -0.446594     -0.082953      0.398645
O             0.053406     -0.082954      0.351355
O             0.446604     -0.250000     -0.398894
Fe            0.146825      0.083327     -0.275375
Fe            0.353265      0.250000      0.474756
Fe           -0.146735      0.250000      0.275244
Fe           -0.353175      0.083327     -0.474625
H            -0.085263      0.083030     -0.451101
H            -0.414779      0.250000      0.299134
H             0.085221      0.250000      0.450866
H             0.414737      0.083030     -0.298899
O            -0.196805      0.083277      0.404599
O            -0.303252      0.250000     -0.345276
O             0.196748      0.250000     -0.404724
O             0.303195      0.083277      0.345401
O            -0.053406      0.082954     -0.351355
O            -0.446604      0.250000      0.398894
O             0.053396      0.250000      0.351106
O             0.446594      0.082953     -0.398645
Fe            0.146825      0.416673     -0.275375
Lu            0.353175     -0.416673      0.474625
Fe           -0.146825     -0.416673      0.275375
Fe           -0.353175      0.416673     -0.474625
H            -0.085263      0.416970     -0.451101
H            -0.414737     -0.416970      0.298899
H             0.085263     -0.416970      0.451101
H             0.414737      0.416970     -0.298899
O            -0.196805      0.416723      0.404599
O            -0.303195     -0.416723     -0.345401
O             0.196805     -0.416723     -0.404599
O             0.303195      0.416723      0.345401
O            -0.053406      0.417047     -0.351355
O            -0.446594     -0.417047      0.398645
O             0.053406     -0.417047      0.351355
O             0.446594      0.417046     -0.398645
data_nwchem_pspw

_audit_creation_date   Tue Aug 27 00:19:58 2024
_audit_creation_method    generated by PSPW module of NWChem


_cell_length_a            10.0667
_cell_length_b             9.1552
_cell_length_c             9.2041
_cell_angle_alpha         90.0000
_cell_angle_beta          90.0000
_cell_angle_gamma         90.0000

_symmetry_space_group_name_H-M     P1  

loop_
_atom_site_type_symbol
_atom_site_fract_x
_atom_site_fract_y
_atom_site_fract_z
Fe            0.146165     -0.254263      0.228837
Fe            0.340926     -0.083380     -0.031595
Fe           -0.146981     -0.088981     -0.225646
Fe           -0.353098     -0.248557      0.020979
H            -0.097766     -0.235517      0.049995
H            -0.400210     -0.080544     -0.201958
H             0.079084     -0.082919     -0.039822
H             0.423363     -0.259152      0.201935
O            -0.209654     -0.238724     -0.099015
O            -0.294971     -0.088311      0.140636
O             0.191316     -0.086518      0.094170
O             0.294876     -0.242973     -0.161718
O            -0.052920     -0.228129      0.141757
O            -0.442348     -0.080586     -0.104981
O             0.051525     -0.068315     -0.140321
O             0.455341     -0.237215      0.107914
Fe            0.150907      0.083598      0.222267
Fe            0.346030      0.244846     -0.028499
Fe           -0.149729      0.253213     -0.221589
Fe           -0.353494      0.081333      0.024292
H            -0.084368      0.088617      0.043631
H            -0.433649      0.254094     -0.223033
H             0.074834      0.275999     -0.038150
H             0.409689      0.076665      0.197876
O            -0.198937      0.075647     -0.083661
O            -0.293049      0.235478      0.162533
O             0.186911      0.251412      0.097436
O             0.294136      0.074996     -0.156808
O            -0.055305      0.084171      0.143174
O            -0.471334      0.245598     -0.127373
O             0.046745      0.272351     -0.142621
O             0.437700      0.078634      0.097780
Fe            0.137663      0.419501      0.232967
Fe            0.350440     -0.415680     -0.027455
Fe           -0.146510     -0.423284     -0.222292
Lu           -0.359153      0.413099      0.041512
H            -0.046116      0.425604      0.027524
H            -0.404420     -0.418002     -0.194149
H             0.091839     -0.437443     -0.049157
H             0.384882      0.407872      0.195348
O            -0.228246      0.408253     -0.122084
O            -0.288229     -0.407514      0.160280
O             0.194550     -0.417897      0.099358
O             0.291205      0.420634     -0.156735
O            -0.046438      0.403117      0.133337
O            -0.465317     -0.411774     -0.113318
O             0.051238     -0.421315     -0.145378
O             0.434674      0.403840      0.111629
Fe            0.144735     -0.246425     -0.276703
Fe            0.346605     -0.081803      0.478945
Fe           -0.150283     -0.082485      0.272919
Fe           -0.345987     -0.242448     -0.472053
H            -0.083400     -0.280795     -0.449082
H            -0.420744     -0.079854      0.301206
H             0.079733     -0.083605      0.454545
H             0.437729     -0.244600     -0.273228
O            -0.192824     -0.249804      0.401945
O            -0.298280     -0.076189     -0.341331
O             0.189308     -0.080435     -0.413710
O             0.296965     -0.233959      0.340754
O            -0.053158     -0.265473     -0.348451
O            -0.446845     -0.079193      0.402164
O             0.051377     -0.079686      0.354417
O             0.463668     -0.247421     -0.373723
Fe            0.144836      0.084031     -0.277315
Fe            0.352026      0.247266      0.481385
Fe           -0.147446      0.248497      0.274195
Fe           -0.344490      0.084360     -0.469804
H            -0.089727      0.078928     -0.447958
H            -0.426108      0.262385      0.297703
H             0.091297      0.232934      0.453008
H             0.403222      0.086711     -0.296551
O            -0.193189      0.081284      0.408248
O            -0.297246      0.238564     -0.344458
O             0.204092      0.228299     -0.402627
O             0.294100      0.083691      0.356582
O            -0.060644      0.081669     -0.345302
O            -0.455862      0.242152      0.392947
O             0.051077      0.238740      0.358470
O             0.438647      0.077984     -0.395707
Fe            0.143427      0.418372     -0.276108
Lu            0.371560     -0.412960      0.455866
Fe           -0.131554     -0.413009      0.282680
Fe           -0.351849      0.411699     -0.474956
H            -0.093368      0.416352     -0.450144
H            -0.373356     -0.408715      0.295023
H             0.121634     -0.409946     -0.488070
H             0.405351      0.412134     -0.307923
O            -0.184368      0.419091      0.402264
O            -0.296387     -0.413229     -0.349842
O             0.186455     -0.409111     -0.405059
O             0.304188      0.404885      0.339248
O            -0.049488      0.433109     -0.356014
O            -0.427626     -0.411600      0.387260
O             0.049869     -0.410227      0.355016
O             0.462582      0.413412     -0.391754
data_nwchem_pspw

_audit_creation_date   Wed Aug 28 00:01:23 2024
_audit_creation_method    generated by PSPW module of NWChem


_cell_length_a            10.0667
_cell_length_b             9.1552
_cell_length_c             9.2041
_cell_angle_alpha         90.0000
_cell_angle_beta          90.0000
_cell_angle_gamma         90.0000

_symmetry_space_group_name_H-M     P1  

loop_
_atom_site_type_symbol
_atom_site_fract_x
_atom_site_fract_y
_atom_site_fract_z
Fe            0.151271     -0.247117      0.220773
Fe            0.344765     -0.085177     -0.026922
Fe           -0.141788     -0.085550     -0.223433
Fe           -0.350575     -0.239085      0.018144
H            -0.069289     -0.252727      0.044262
H            -0.427044     -0.091027     -0.217628
H             0.089185     -0.079734     -0.039236
H             0.419123     -0.223234      0.201705
O            -0.194164     -0.255252     -0.108476
O            -0.307956     -0.085844      0.159358
O             0.180632     -0.090631      0.095758
O             0.287425     -0.247962     -0.147274
O            -0.048753     -0.248183      0.146205
O            -0.442954     -0.088405     -0.110837
O             0.045484     -0.084495     -0.136925
O             0.445664     -0.231957      0.099714
Fe            0.144744      0.079935      0.232162
Fe            0.350386      0.251315     -0.020550
Fe           -0.145084      0.250599     -0.236380
Fe           -0.358070      0.082705      0.018776
H            -0.068437      0.069907      0.041599
H            -0.428993      0.237869     -0.208525
H             0.089658      0.241816     -0.052103
H             0.410554      0.071264      0.190703
O            -0.182367      0.086276     -0.098910
O            -0.303369      0.228701      0.147711
O             0.178770      0.240171      0.097636
O             0.293802      0.078694     -0.140900
O            -0.051660      0.077629      0.145087
O            -0.458988      0.237043     -0.109038
O             0.062381      0.254901     -0.155077
O             0.447664      0.081398      0.093099
Fe            0.150149      0.414252      0.227175
Fe            0.346230     -0.411308     -0.023912
Fe           -0.136369     -0.415641     -0.232333
Lu           -0.350334      0.416809      0.018992
H            -0.084949      0.412274      0.044448
H            -0.433009     -0.389761     -0.207340
H             0.080386     -0.403174     -0.053287
H             0.396378      0.401327      0.207200
O            -0.168157      0.417167     -0.091990
O            -0.307887     -0.399399      0.166653
O             0.186096     -0.418761      0.094658
O             0.306840      0.414214     -0.151850
O            -0.054404      0.419033      0.137766
O            -0.453352     -0.402113     -0.108375
O             0.055557     -0.417203     -0.153138
O             0.436857      0.399051      0.113180
Fe            0.142330     -0.245437     -0.270261
Fe            0.355728     -0.083357      0.479906
Fe           -0.143807     -0.082555      0.269088
Fe           -0.354201     -0.246709     -0.481922
H            -0.095621     -0.261786     -0.453303
H            -0.421546     -0.079070      0.300885
H             0.056467     -0.076240      0.457554
H             0.441650     -0.260717     -0.291163
O            -0.190770     -0.242718      0.405711
O            -0.296195     -0.088072     -0.349394
O             0.194707     -0.075815     -0.390125
O             0.309257     -0.243333      0.348013
O            -0.059075     -0.260495     -0.355306
O            -0.454663     -0.078137      0.400592
O             0.050608     -0.075882      0.354550
O             0.464059     -0.250184     -0.392725
Fe            0.143238      0.085446     -0.273640
Fe            0.352295      0.239321      0.481708
Fe           -0.143866      0.245842      0.268197
Fe           -0.336183      0.084864     -0.477446
H            -0.079453      0.070346     -0.468725
H            -0.406516      0.215597      0.303622
H             0.067020      0.248544      0.460054
H             0.430693      0.086025     -0.289646
O            -0.182599      0.085565      0.399234
O            -0.298961      0.247092     -0.352681
O             0.186906      0.262811     -0.393783
O             0.308300      0.077231      0.342497
O            -0.046615      0.077633     -0.371574
O            -0.432613      0.231112      0.403127
O             0.045381      0.243207      0.356974
O             0.443902      0.086699     -0.393588
Fe            0.137984      0.417304     -0.270622
Lu            0.342401     -0.418264      0.485828
Fe           -0.149578     -0.416505      0.270378
Fe           -0.345667      0.418858     -0.476675
H            -0.093949      0.419332     -0.451056
H            -0.406866     -0.408834      0.310388
H             0.082664     -0.404020      0.463454
H             0.469921      0.428532     -0.291689
O            -0.185819      0.426942      0.405714
O            -0.302515     -0.410940     -0.339795
O             0.195993     -0.412397     -0.383300
O             0.298553      0.400239      0.346175
O            -0.055397      0.420467     -0.352063
O            -0.448017     -0.402794      0.404067
O             0.064870     -0.404545      0.358346
O             0.473332      0.399634     -0.390505
data_nwchem_pspw

_audit_creation_date   Wed Aug 28 05:18:21 2024
_audit_creation_method    generated by PSPW module of NWChem


_cell_length_a            10.0667
_cell_length_b             9.1552
_cell_length_c             9.2041
_cell_angle_alpha         90.0000
_cell_angle_beta          90.0000
_cell_angle_gamma         90.0000

_symmetry_space_group_name_H-M     P1  

loop_
_atom_site_type_symbol
_atom_site_fract_x
_atom_site_fract_y
_atom_site_fract_z
Fe            0.147005     -0.245120      0.223401
Fe            0.355058     -0.081397     -0.027711
Fe           -0.145927     -0.091259     -0.220206
Fe           -0.364096     -0.251025      0.021707
H            -0.091266     -0.248628      0.060249
H            -0.418803     -0.066665     -0.206437
H             0.057517     -0.073065     -0.045904
H             0.389423     -0.222123      0.183130
O            -0.198744     -0.251852     -0.096083
O            -0.294020     -0.092293      0.148457
O             0.205905     -0.076915      0.099112
O             0.301170     -0.244558     -0.155703
O            -0.051895     -0.259981      0.156143
O            -0.449640     -0.090949     -0.110591
O             0.046115     -0.080791     -0.150601
O             0.435631     -0.239126      0.090877
Fe            0.138686      0.080231      0.222009
Fe            0.348396      0.242079     -0.020163
Fe           -0.143804      0.242938     -0.221751
Fe           -0.364660      0.085132      0.026196
H            -0.112803      0.072607      0.041323
H            -0.422201      0.219207     -0.205924
H             0.085794      0.238893     -0.046563
H             0.394732      0.077857      0.210354
O            -0.210132      0.091431     -0.097397
O            -0.314071      0.228373      0.166730
O             0.197217      0.242751      0.091817
O             0.303350      0.068715     -0.168782
O            -0.063410      0.082766      0.134114
O            -0.458134      0.247123     -0.113355
O             0.049777      0.238325     -0.146371
O             0.438823      0.072562      0.113436
Fe            0.138389      0.422491      0.219927
Fe            0.365088     -0.410454     -0.028570
Fe           -0.135570     -0.413738     -0.230876
Lu           -0.357294      0.414499      0.034419
H            -0.090099      0.424297      0.046873
H            -0.385657     -0.416594     -0.199481
H             0.082138     -0.368994     -0.051191
H             0.393523      0.410454      0.206527
O            -0.170357      0.417048     -0.084857
O            -0.319368     -0.392513      0.159189
O             0.200080     -0.405245      0.100965
O             0.285503      0.414982     -0.147696
O            -0.060485      0.417046      0.153852
O            -0.448958     -0.421527     -0.108579
O             0.060959     -0.408235     -0.147384
O             0.439081      0.416888      0.108237
Fe            0.145922     -0.248826     -0.283644
Fe            0.353103     -0.077870      0.477197
Fe           -0.146775     -0.082966      0.284483
Fe           -0.352112     -0.251159     -0.461375
H            -0.083482     -0.243779     -0.455523
H            -0.403438     -0.085584      0.304599
H             0.100002     -0.083550      0.450607
H             0.437184     -0.210059     -0.294726
O            -0.186035     -0.249627      0.417754
O            -0.304390     -0.078254     -0.333920
O             0.202333     -0.083320     -0.409252
O             0.305381     -0.225130      0.334946
O            -0.046232     -0.253836     -0.356841
O            -0.437631     -0.072553      0.402587
O             0.061891     -0.077764      0.352476
O             0.449833     -0.240109     -0.393595
Fe            0.139832      0.087007     -0.278901
Fe            0.362433      0.249283      0.480739
Fe           -0.151722      0.245626      0.275751
Fe           -0.346920      0.089401     -0.464910
H            -0.091714      0.066996     -0.465471
H            -0.400024      0.217012      0.310179
H             0.078690      0.245284      0.452699
H             0.405696      0.092275     -0.294065
O            -0.189497      0.084774      0.406386
O            -0.308229      0.247713     -0.341787
O             0.208885      0.245047     -0.399827
O             0.300205      0.095635      0.345050
O            -0.061417      0.076740     -0.365937
O            -0.441730      0.240354      0.404295
O             0.054868      0.251211      0.349699
O             0.438354      0.101017     -0.394534
Fe            0.144091      0.412499     -0.283606
Lu            0.361604     -0.414213      0.462358
Fe           -0.138530     -0.413465      0.281796
Fe           -0.354834      0.407258     -0.477014
H            -0.084038      0.411647     -0.467123
H            -0.390801     -0.409778      0.295180
H             0.095214     -0.430075      0.449180
H             0.428698      0.402308     -0.298376
O            -0.211518      0.403093      0.394058
O            -0.309138     -0.412074     -0.339581
O             0.185814     -0.428585     -0.404694
O             0.311630      0.400629      0.339094
O            -0.056083      0.408417     -0.366018
O            -0.438066     -0.406102      0.395889
O             0.064462     -0.419367      0.349085
O             0.462290      0.424092     -0.393760
data_nwchem_pspw

_audit_creation_date   Wed Aug 28 09:45:16 2024
_audit_creation_method    generated by PSPW module of NWChem


_cell_length_a            10.0667
_cell_length_b             9.1552
_cell_length_c             9.2041
_cell_angle_alpha         90.0000
_cell_angle_beta          90.0000
_cell_angle_gamma         90.0000

_symmetry_space_group_name_H-M     P1  

loop_
_atom_site_type_symbol
_atom_site_fract_x
_atom_site_fract_y
_atom_site_fract_z
Fe            0.144418     -0.246633      0.221810
Fe            0.356111     -0.088503     -0.013117
Fe           -0.138926     -0.077018     -0.227206
Fe           -0.348217     -0.239655      0.029534
H            -0.080376     -0.275877      0.053189
H            -0.419565     -0.075464     -0.194955
H             0.093449     -0.081966     -0.043176
H             0.407309     -0.275247      0.197374
O            -0.197777     -0.244646     -0.091554
O            -0.322963     -0.070591      0.167240
O             0.192474     -0.083852      0.087119
O             0.309326     -0.253172     -0.156394
O            -0.046992     -0.230709      0.143137
O            -0.439402     -0.091675     -0.093711
O             0.057046     -0.076842     -0.144185
O             0.449465     -0.262759      0.103080
Fe            0.139203      0.083080      0.223889
Fe            0.352042      0.261187     -0.021138
Fe           -0.147362      0.247471     -0.234071
Fe           -0.355021      0.084759      0.017560
H            -0.086195      0.075315      0.041595
H            -0.430838      0.250123     -0.209023
H             0.078690      0.257541     -0.046238
H             0.418928      0.081199      0.203203
O            -0.183816      0.080523     -0.094164
O            -0.303808      0.239716      0.153880
O             0.183839      0.249867      0.098557
O             0.297014      0.091742     -0.150507
O            -0.055845      0.074755      0.143657
O            -0.447953      0.243692     -0.106005
O             0.044338      0.247220     -0.145024
O             0.452358      0.087940      0.102263
Fe            0.148675      0.416699      0.224546
Fe            0.357864     -0.421785     -0.025504
Fe           -0.144599     -0.413438     -0.240097
Lu           -0.358477      0.416742      0.022203
H            -0.094357      0.391551      0.050625
H            -0.414804     -0.389723     -0.216010
H             0.086688     -0.420305     -0.033753
H             0.384777      0.415747      0.203871
O            -0.187076      0.406003     -0.104672
O            -0.284429     -0.387718      0.157919
O             0.196450     -0.426422      0.091110
O             0.306671      0.419999     -0.155683
O            -0.056106      0.420542      0.143394
O            -0.432915     -0.410272     -0.106896
O             0.052365     -0.419823     -0.133795
O             0.437015      0.426138      0.116664
Fe            0.141875     -0.245115     -0.265862
Fe            0.360746     -0.073567      0.465570
Fe           -0.138668     -0.090877      0.281424
Fe           -0.363326     -0.250454     -0.475878
H            -0.091277     -0.254277     -0.456381
H            -0.418480     -0.080048      0.287316
H             0.103063     -0.088317      0.460409
H             0.427836     -0.251336     -0.282626
O            -0.203370     -0.255781      0.411282
O            -0.304868     -0.077162     -0.339868
O             0.191956     -0.081469     -0.402066
O             0.315247     -0.235747      0.347906
O            -0.052689     -0.247307     -0.358245
O            -0.445312     -0.075689      0.395671
O             0.057981     -0.079041      0.363748
O             0.445871     -0.260827     -0.385836
Fe            0.136704      0.082693     -0.273435
Fe            0.352460      0.244579      0.479292
Fe           -0.142476      0.247194      0.270900
Fe           -0.354208      0.085712     -0.473238
H            -0.084823      0.072535     -0.452793
H            -0.422859      0.239812      0.293875
H             0.051179      0.266996      0.447654
H             0.397039      0.077346     -0.303116
O            -0.193904      0.085242      0.409723
O            -0.300714      0.240947     -0.357641
O             0.189886      0.257318     -0.405396
O             0.311740      0.085673      0.342179
O            -0.057070      0.082168     -0.351951
O            -0.450083      0.246404      0.395055
O             0.052977      0.246399      0.344765
O             0.428159      0.082148     -0.403341
Fe            0.138009      0.418149     -0.266476
Lu            0.358181     -0.423248      0.482102
Fe           -0.135528     -0.417895      0.273953
Fe           -0.351175      0.419637     -0.480095
H            -0.095872      0.422705     -0.455963
H            -0.381161     -0.413986      0.297735
H             0.083254     -0.424838      0.452881
H             0.412141      0.389717     -0.285102
O            -0.211734      0.418847      0.386657
O            -0.304291     -0.417566     -0.354397
O             0.176399     -0.407213     -0.398745
O             0.291968      0.379311      0.341563
O            -0.041334      0.409527     -0.369404
O            -0.440097     -0.421744      0.378846
O             0.061631     -0.414113      0.346249
O             0.445058      0.400845     -0.383875
data_nwchem_pspw

_audit_creation_date   Wed Aug 28 16:17:44 2024
_audit_creation_method    generated by PSPW module of NWChem


_cell_length_a            10.0667
_cell_length_b             9.1552
_cell_length_c             9.2041
_cell_angle_alpha         90.0000
_cell_angle_beta          90.0000
_cell_angle_gamma         90.0000

_symmetry_space_group_name_H-M     P1  

loop_
_atom_site_type_symbol
_atom_site_fract_x
_atom_site_fract_y
_atom_site_fract_z
Fe            0.146024     -0.247670      0.226096
Fe            0.353126     -0.081241     -0.017747
Fe           -0.134179     -0.095059     -0.220107
Fe           -0.354970     -0.252551      0.025293
H            -0.088948     -0.253989      0.044010
H            -0.415096     -0.095351     -0.197496
H             0.103122     -0.092351     -0.045792
H             0.416416     -0.209281      0.205379
O            -0.198933     -0.245507     -0.092317
O            -0.298717     -0.083729      0.143193
O             0.185310     -0.071621      0.093363
O             0.295225     -0.249394     -0.142507
O            -0.058409     -0.251072      0.143321
O            -0.443612     -0.080450     -0.095122
O             0.059077     -0.090701     -0.142871
O             0.450565     -0.242385      0.112806
Fe            0.138352      0.089908      0.228886
Fe            0.339715      0.245471     -0.022592
Fe           -0.136507      0.243477     -0.237726
Fe           -0.352415      0.087121      0.010761
H            -0.106509      0.078373      0.056108
H            -0.416723      0.247285     -0.204357
H             0.067759      0.230673     -0.049263
H             0.427295      0.081310      0.201005
O            -0.197489      0.084092     -0.105491
O            -0.306558      0.222156      0.154817
O             0.180781      0.252428      0.087103
O             0.319442      0.084565     -0.172906
O            -0.064058      0.071257      0.150788
O            -0.455628      0.251441     -0.107138
O             0.054146      0.242335     -0.153111
O             0.445385      0.080998      0.097602
Fe            0.142472      0.416818      0.220875
Fe            0.347699     -0.415892     -0.022465
Fe           -0.150321     -0.414051     -0.226871
Lu           -0.352979      0.414992      0.028974
H            -0.073410      0.431540      0.038387
H            -0.431978     -0.413123     -0.200074
H             0.090930     -0.433095     -0.052840
H             0.406546      0.410283      0.208024
O            -0.177066      0.414863     -0.110164
O            -0.308304     -0.398026      0.166545
O             0.209466     -0.408452      0.107208
O             0.304837      0.409026     -0.150977
O            -0.063118      0.420729      0.142723
O            -0.452050     -0.405829     -0.101181
O             0.047844     -0.421221     -0.144818
O             0.438050      0.412154      0.108459
Fe            0.148808     -0.251411     -0.271469
Fe            0.352563     -0.086534      0.472542
Fe           -0.149503     -0.083154      0.283584
Fe           -0.350739     -0.250973     -0.476269
H            -0.077090     -0.224561     -0.451671
H            -0.411310     -0.082490      0.290475
H             0.076426     -0.082681      0.442796
H             0.417137     -0.236679     -0.299634
O            -0.207507     -0.253461      0.398430
O            -0.295416     -0.080222     -0.343899
O             0.204493     -0.100453     -0.403114
O             0.303546     -0.225940      0.326980
O            -0.059870     -0.252522     -0.352645
O            -0.445288     -0.064273      0.388587
O             0.038337     -0.087844      0.347596
O             0.458420     -0.239955     -0.395612
Fe            0.140245      0.074722     -0.266073
Fe            0.359964      0.248167      0.482596
Fe           -0.142184      0.246807      0.275935
Fe           -0.357580      0.084746     -0.470717
H            -0.089323      0.068811     -0.450382
H            -0.392574      0.219740      0.301848
H             0.092711      0.258862      0.448946
H             0.414857      0.077673     -0.295335
O            -0.188646      0.086647      0.420851
O            -0.291912      0.251727     -0.352739
O             0.195056      0.247628     -0.407689
O             0.283943      0.090498      0.358334
O            -0.053137      0.075315     -0.349329
O            -0.443297      0.250357      0.388033
O             0.055701      0.260358      0.349204
O             0.450701      0.074050     -0.397711
Fe            0.146466      0.416865     -0.280541
Lu            0.355668     -0.408784      0.469655
Fe           -0.145847     -0.413976      0.285723
Fe           -0.346195      0.420482     -0.478585
H            -0.062436      0.427025     -0.472681
H            -0.407621     -0.419534      0.295862
H             0.085105     -0.426280      0.454230
H             0.444349      0.413066     -0.283873
O            -0.188165      0.410113      0.403715
O            -0.302765     -0.418068     -0.348917
O             0.186313     -0.421868     -0.413107
O             0.306373      0.406418      0.344997
O            -0.050760      0.418363     -0.366222
O            -0.443812     -0.425498      0.392860
O             0.049455     -0.412629      0.352999
O             0.451437      0.411501     -0.387779
data_nwchem_pspw

_audit_creation_date   Thu Aug 29 00:17:49 2024
_audit_creation_method    generated by PSPW module of NWChem


_cell_length_a            10.0667
_cell_length_b             9.1552
_cell_length_c             9.2041
_cell_angle_alpha         90.0000
_cell_angle_beta          90.0000
_cell_angle_gamma         90.0000

_symmetry_space_group_name_H-M     P1  

loop_
_atom_site_type_symbol
_atom_site_fract_x
_atom_site_fract_y
_atom_site_fract_z
Fe            0.143491     -0.243282      0.221929
Fe            0.352627     -0.083919     -0.032778
Fe           -0.147113     -0.073316     -0.213506
Fe           -0.361349     -0.232276      0.031845
H            -0.073763     -0.262809      0.041520
H            -0.392012     -0.102133     -0.190143
H             0.095519     -0.070674     -0.056440
H             0.411781     -0.244934      0.208777
O            -0.204957     -0.255164     -0.092031
O            -0.308793     -0.077219      0.164742
O             0.200940     -0.082186      0.095916
O             0.296861     -0.249191     -0.159149
O            -0.048058     -0.253906      0.142607
O            -0.459652     -0.116657     -0.119160
O             0.053395     -0.079188     -0.151874
O             0.443849     -0.252163      0.110690
Fe            0.153542      0.082057      0.225797
Fe            0.335501      0.253833     -0.033229
Fe           -0.133628      0.250871     -0.234000
Fe           -0.342473      0.086492      0.034012
H            -0.074979      0.088413      0.051000
H            -0.432653      0.240316     -0.189332
H             0.078323      0.226146     -0.044027
H             0.417358      0.074502      0.191873
O            -0.194259      0.093561     -0.084447
O            -0.318345      0.233866      0.178003
O             0.196437      0.240994      0.099523
O             0.303444      0.077219     -0.160799
O            -0.046961      0.088723      0.151213
O            -0.464116      0.233852     -0.090691
O             0.058029      0.234058     -0.147149
O             0.440381      0.073968      0.090358
Fe            0.145724      0.420395      0.231439
Fe            0.346111     -0.409317     -0.032714
Fe           -0.140796     -0.419574     -0.224436
Lu           -0.356198      0.414583      0.031842
H            -0.066618      0.412742      0.046472
H            -0.434525     -0.417864     -0.211068
H             0.093808     -0.435645     -0.046326
H             0.399078      0.416624      0.186514
O            -0.182524      0.418308     -0.086650
O            -0.298710     -0.392110      0.150040
O             0.179704     -0.425112      0.097501
O             0.304665      0.420741     -0.172715
O            -0.052892      0.421280      0.149340
O            -0.472960     -0.414831     -0.116025
O             0.052282     -0.405605     -0.136116
O             0.431287      0.414605      0.086778
Fe            0.141146     -0.244293     -0.268996
Fe            0.347628     -0.081485      0.469437
Fe           -0.154293     -0.094049      0.274161
Fe           -0.343690     -0.248389     -0.463987
H            -0.090889     -0.239211     -0.431311
H            -0.411071     -0.113551      0.293312
H             0.083706     -0.096035      0.460951
H             0.444694     -0.234807     -0.312132
O            -0.199468     -0.241342      0.405032
O            -0.289846     -0.076136     -0.336119
O             0.197079     -0.075188     -0.400452
O             0.298451     -0.231578      0.351019
O            -0.053815     -0.233411     -0.336115
O            -0.440247     -0.070822      0.383410
O             0.051504     -0.103287      0.358183
O             0.461932     -0.233244     -0.414989
Fe            0.144138      0.079566     -0.282601
Fe            0.359815      0.235366      0.457518
Fe           -0.140921      0.247168      0.276373
Fe           -0.348555      0.079095     -0.472906
H            -0.097138      0.087082     -0.462767
H            -0.403578      0.242366      0.301776
H             0.087428      0.258318      0.451700
H             0.411320      0.094433     -0.298558
O            -0.179653      0.083545      0.410119
O            -0.292231      0.246069     -0.346923
O             0.208620      0.254295     -0.401601
O             0.304318      0.079283      0.333094
O            -0.053373      0.088628     -0.360932
O            -0.445555      0.238338      0.398105
O             0.059215      0.251933      0.349827
O             0.447609      0.089799     -0.396692
Fe            0.140057      0.423086     -0.274519
Lu            0.355742     -0.420731      0.472244
Fe           -0.147377     -0.409573      0.274320
Fe           -0.351100      0.411556     -0.466609
H            -0.100745      0.390295     -0.450413
H            -0.397847     -0.395962      0.297825
H             0.072619     -0.407555      0.451534
H             0.435406      0.401712     -0.290545
O            -0.194748      0.416705      0.400274
O            -0.288913     -0.421532     -0.345010
O             0.174155     -0.410358     -0.407878
O             0.307395      0.398561      0.341052
O            -0.053386      0.414387     -0.363664
O            -0.443102     -0.411635      0.390788
O             0.055293     -0.422578      0.348672
O             0.463095      0.395056     -0.391762
data_nwchem_pspw

_audit_creation_date   Thu Aug 29 06:04:01 2024
_audit_creation_method    generated by PSPW module of NWChem


_cell_length_a            10.0667
_cell_length_b             9.1552
_cell_length_c             9.2041
_cell_angle_alpha         90.0000
_cell_angle_beta          90.0000
_cell_angle_gamma         90.0000

_symmetry_space_group_name_H-M     P1  

loop_
_atom_site_type_symbol
_atom_site_fract_x
_atom_site_fract_y
_atom_site_fract_z
Fe            0.151536     -0.242678      0.232678
Fe            0.354755     -0.080058     -0.027637
Fe           -0.154367     -0.080257     -0.214305
Fe           -0.355022     -0.250639      0.009677
H            -0.104722     -0.264923      0.053449
H            -0.439859     -0.077298     -0.207296
H             0.056206     -0.068263     -0.036379
H             0.406618     -0.245683      0.198712
O            -0.172357     -0.258858     -0.084757
O            -0.291740     -0.089531      0.145678
O             0.205716     -0.074458      0.096452
O             0.298390     -0.252240     -0.142428
O            -0.061683     -0.265055      0.156800
O            -0.452469     -0.083798     -0.104332
O             0.053298     -0.078255     -0.140491
O             0.458071     -0.239782      0.108732
Fe            0.153988      0.086172      0.231785
Fe            0.342237      0.247564     -0.022131
Fe           -0.145214      0.251456     -0.240426
Fe           -0.354998      0.084406      0.024096
H            -0.075383      0.096091      0.047292
H            -0.420252      0.254030     -0.210350
H             0.090474      0.258456     -0.041778
H             0.441651      0.083150      0.220758
O            -0.198974      0.088962     -0.098317
O            -0.293184      0.230681      0.141968
O             0.193828      0.261213      0.099551
O             0.291101      0.084530     -0.161162
O            -0.037635      0.087972      0.143493
O            -0.455648      0.238325     -0.112167
O             0.055447      0.246973     -0.139145
O             0.464777      0.081472      0.120791
Fe            0.142779      0.401092      0.240068
Fe            0.356828     -0.422363     -0.029686
Fe           -0.141733     -0.417693     -0.233954
Lu           -0.347681      0.410000      0.022378
H            -0.047378      0.398449      0.058183
H            -0.433094     -0.416352     -0.215245
H             0.073932     -0.426035     -0.049698
H             0.399139      0.416699      0.198030
O            -0.186956      0.420346     -0.113415
O            -0.318414     -0.390312      0.155575
O             0.214941     -0.412789      0.109291
O             0.306945      0.418818     -0.161048
O            -0.052070      0.424164      0.157330
O            -0.453242     -0.416229     -0.111781
O             0.048901     -0.422213     -0.151105
O             0.439513      0.412667      0.101368
Fe            0.139933     -0.242969     -0.262841
Fe            0.351487     -0.082011      0.487178
Fe           -0.156426     -0.083106      0.275728
Fe           -0.343404     -0.247465     -0.477910
H            -0.085821     -0.262323     -0.457469
H            -0.415434     -0.096648      0.292742
H             0.083581     -0.070567      0.434741
H             0.403814     -0.227413     -0.287624
O            -0.198628     -0.253322      0.401692
O            -0.295187     -0.077309     -0.358146
O             0.203846     -0.089613     -0.383741
O             0.297520     -0.217619      0.354789
O            -0.055793     -0.248220     -0.359860
O            -0.451988     -0.078308      0.388667
O             0.046224     -0.076176      0.338113
O             0.461335     -0.231462     -0.372282
Fe            0.143406      0.084182     -0.273043
Fe            0.347119      0.252324      0.475658
Fe           -0.137416      0.249327      0.273472
Fe           -0.342030      0.088528     -0.484887
H            -0.069032      0.095309     -0.456341
H            -0.412166      0.238073      0.291865
H             0.085158      0.259980      0.467225
H             0.419929      0.079336     -0.293320
O            -0.178997      0.073348      0.396870
O            -0.300497      0.252506     -0.357662
O             0.189520      0.249397     -0.398503
O             0.280549      0.081301      0.371462
O            -0.045923      0.085649     -0.355792
O            -0.440477      0.256309      0.389688
O             0.039136      0.260327      0.372018
O             0.448713      0.080468     -0.395670
Fe            0.143592      0.411924     -0.264555
Lu            0.347826     -0.418144      0.471404
Fe           -0.151725     -0.417925      0.267170
Fe           -0.359107      0.422911     -0.478194
H            -0.071363      0.408252     -0.468360
H            -0.407025     -0.390624      0.302054
H             0.070145     -0.410989      0.458899
H             0.400823      0.406495     -0.312539
O            -0.193975      0.411768      0.402231
O            -0.306591     -0.410439     -0.352414
O             0.186933     -0.420518     -0.386758
O             0.301223      0.401483      0.339614
O            -0.046721      0.418065     -0.365569
O            -0.444181     -0.416058      0.396890
O             0.046509     -0.423989      0.359546
O             0.453777      0.399750     -0.400265
data_nwchem_pspw

_audit_creation_date   Thu Aug 29 10:30:39 2024
_audit_creation_method    generated by PSPW module of NWChem


_cell_length_a            10.0667
_cell_length_b             9.1552
_cell_length_c             9.2041
_cell_angle_alpha         90.0000
_cell_angle_beta          90.0000
_cell_angle_gamma         90.0000

_symmetry_space_group_name_H-M     P1  

loop_
_atom_site_type_symbol
_atom_site_fract_x
_atom_site_fract_y
_atom_site_fract_z
Fe            0.151620     -0.249698      0.224351
Fe            0.352303     -0.083411     -0.029207
Fe           -0.144586     -0.086218     -0.224161
Fe           -0.355924     -0.237122      0.022578
H            -0.103985     -0.251274      0.072660
H            -0.410450     -0.063690     -0.210441
H             0.065853     -0.083580     -0.047997
H             0.431151     -0.267137      0.191985
O            -0.200982     -0.254831     -0.090705
O            -0.305628     -0.078786      0.159555
O             0.195214     -0.091594      0.086415
O             0.317210     -0.247836     -0.161406
O            -0.052823     -0.249105      0.162716
O            -0.455315     -0.063860     -0.116952
O             0.048068     -0.095125     -0.150805
O             0.457110     -0.256074      0.091353
Fe            0.141969      0.078660      0.216757
Fe            0.341883      0.248571     -0.030297
Fe           -0.139191      0.240100     -0.217149
Fe           -0.359622      0.092696      0.028166
H            -0.098235      0.078571      0.055516
H            -0.424486      0.255233     -0.207255
H             0.080769      0.241154     -0.046781
H             0.424794      0.100026      0.194333
O            -0.189178      0.083199     -0.074285
O            -0.300841      0.249737      0.171807
O             0.187491      0.248619      0.088331
O             0.305028      0.076731     -0.156136
O            -0.052529      0.085374      0.153243
O            -0.465558      0.252458     -0.109361
O             0.053009      0.262450     -0.146354
O             0.453196      0.086630      0.095868
Fe            0.148552      0.423079      0.217269
Fe            0.355393     -0.411490     -0.038013
Fe           -0.140580     -0.419621     -0.227566
Lu           -0.361312      0.417581      0.029185
H            -0.061455      0.407488      0.057344
H            -0.428530     -0.422551     -0.213924
H             0.064470     -0.379947     -0.045078
H             0.381304      0.398005      0.202075
O            -0.188052      0.423316     -0.098053
O            -0.308705     -0.379311      0.164908
O             0.193466     -0.411388      0.087773
O             0.296974      0.422594     -0.142086
O            -0.048818      0.415457      0.161665
O            -0.454178     -0.407033     -0.114896
O             0.043873     -0.405160     -0.143622
O             0.425541      0.411730      0.108578
Fe            0.151122     -0.250984     -0.281025
Fe            0.352488     -0.080614      0.473483
Fe           -0.148018     -0.085484      0.281531
Fe           -0.348611     -0.246689     -0.466622
H            -0.089474     -0.226526     -0.447938
H            -0.429790     -0.076224      0.291443
H             0.084717     -0.098506      0.445952
H             0.406334     -0.248186     -0.302449
O            -0.190877     -0.242473      0.413578
O            -0.296646     -0.082083     -0.348865
O             0.188729     -0.089392     -0.412945
O             0.306969     -0.234651      0.341410
O            -0.049948     -0.261249     -0.357846
O            -0.443369     -0.084694      0.396215
O             0.049685     -0.086071      0.347501
O             0.461668     -0.251091     -0.394314
Fe            0.140438      0.076609     -0.283674
Fe            0.350128      0.234558      0.478536
Fe           -0.146634      0.246724      0.279227
Fe           -0.354459      0.077926     -0.482262
H            -0.103154      0.100973     -0.452239
H            -0.396630      0.260942      0.305161
H             0.084207      0.240998      0.443727
H             0.426629      0.071422     -0.303392
O            -0.207846      0.077642      0.401263
O            -0.303678      0.239507     -0.337904
O             0.199292      0.249634     -0.401589
O             0.298645      0.072683      0.339673
O            -0.053836      0.074516     -0.362217
O            -0.436638      0.254233      0.404513
O             0.049414      0.241348      0.344605
O             0.445809      0.076404     -0.406551
Fe            0.141682      0.417619     -0.268282
Lu            0.363735     -0.412955      0.466967
Fe           -0.148811     -0.414860      0.289578
Fe           -0.348265      0.419426     -0.453913
H            -0.073423      0.391772     -0.458938
H            -0.386206     -0.416363      0.303019
H             0.072466     -0.405613      0.446427
H             0.413077      0.402913     -0.283757
O            -0.195833      0.418720      0.417409
O            -0.287799     -0.414980     -0.352631
O             0.187119     -0.418752     -0.394806
O             0.296721      0.398857      0.345822
O            -0.045051      0.388242     -0.358328
O            -0.432897     -0.411473      0.398789
O             0.066035     -0.409329      0.343417
O             0.447936      0.400183     -0.382876
data_nwchem_pspw

_audit_creation_date   Thu Aug 29 15:26:58 2024
_audit_creation_method    generated by PSPW module of NWChem


_cell_length_a            10.0667
_cell_length_b             9.1552
_cell_length_c             9.2041
_cell_angle_alpha         90.0000
_cell_angle_beta          90.0000
_cell_angle_gamma         90.0000

_symmetry_space_group_name_H-M     P1  

loop_
_atom_site_type_symbol
_atom_site_fract_x
_atom_site_fract_y
_atom_site_fract_z
Fe            0.141073     -0.248084      0.227399
Fe            0.351476     -0.085889     -0.025559
Fe           -0.146000     -0.082585     -0.238082
Fe           -0.340938     -0.245475      0.018017
H            -0.097003     -0.245684      0.044335
H            -0.427060     -0.088675     -0.198020
H             0.096855     -0.098407     -0.031466
H             0.417207     -0.230187      0.195938
O            -0.192074     -0.254240     -0.110152
O            -0.313350     -0.086300      0.150469
O             0.200752     -0.090760      0.094501
O             0.312045     -0.255052     -0.161062
O            -0.065231     -0.238135      0.144367
O            -0.453125     -0.083818     -0.098219
O             0.048230     -0.094532     -0.122928
O             0.454510     -0.243871      0.101132
Fe            0.149339      0.073984      0.229285
Fe            0.347542      0.245748     -0.017726
Fe           -0.141708      0.249310     -0.238670
Fe           -0.356036      0.073293      0.020622
H            -0.075485      0.091758      0.043270
H            -0.427042      0.231574     -0.211697
H             0.097705      0.251398     -0.045187
H             0.400420      0.079886      0.199377
O            -0.205101      0.072716     -0.099169
O            -0.309753      0.231405      0.154409
O             0.188051      0.244024      0.093542
O             0.299964      0.082053     -0.162500
O            -0.062897      0.081607      0.147264
O            -0.448579      0.237396     -0.109225
O             0.061675      0.249281     -0.145875
O             0.430032      0.076356      0.098958
Fe            0.147065      0.419019      0.213296
Fe            0.361296     -0.424436     -0.024928
Fe           -0.147759     -0.411251     -0.234643
Lu           -0.349862      0.407989      0.017496
H            -0.070132      0.413020      0.036693
H            -0.427506     -0.394574     -0.213877
H             0.054748     -0.390776     -0.034190
H             0.399690      0.414412      0.193258
O            -0.175111      0.412524     -0.108273
O            -0.297256     -0.396098      0.167486
O             0.216910     -0.406326      0.105726
O             0.308343      0.411006     -0.160383
O            -0.047674      0.419402      0.139781
O            -0.452293     -0.410248     -0.112987
O             0.044584     -0.419042     -0.133354
O             0.441223      0.409308      0.093738
Fe            0.145553     -0.238596     -0.253146
Fe            0.360343     -0.076154      0.469693
Fe           -0.145165     -0.084257      0.263116
Fe           -0.351565     -0.244710     -0.477709
H            -0.061219     -0.240583     -0.455943
H            -0.419630     -0.110505      0.293419
H             0.086021     -0.107219      0.456591
H             0.431344     -0.234295     -0.294735
O            -0.207500     -0.253810      0.390400
O            -0.302049     -0.075412     -0.351194
O             0.198622     -0.076734     -0.399643
O             0.292408     -0.223205      0.345867
O            -0.040480     -0.244626     -0.355978
O            -0.450089     -0.089930      0.392995
O             0.035765     -0.087824      0.367425
O             0.447335     -0.241349     -0.398895
Fe            0.138340      0.089018     -0.273641
Fe            0.348273      0.249038      0.486661
Fe           -0.138481      0.248562      0.288376
Fe           -0.341128      0.086515     -0.474159
H            -0.066054      0.106420     -0.462529
H            -0.404126      0.265074      0.301496
H             0.090532      0.251959      0.444796
H             0.419894      0.087369     -0.309600
O            -0.192216      0.085218      0.406132
O            -0.313918      0.249833     -0.342342
O             0.178814      0.261754     -0.410607
O             0.296704      0.098527      0.356204
O            -0.051274      0.093815     -0.357868
O            -0.434993      0.260212      0.401005
O             0.056497      0.250648      0.338610
O             0.455799      0.091112     -0.408226
Fe            0.145362      0.429748     -0.255664
Lu            0.344311     -0.419229      0.485592
Fe           -0.139550     -0.414804      0.284566
Fe           -0.355905      0.414671     -0.471544
H            -0.060969      0.440761     -0.467287
H            -0.390724     -0.403082      0.322019
H             0.070376     -0.427091      0.456930
H             0.408628      0.419794     -0.299311
O            -0.197424      0.414658      0.390162
O            -0.305018     -0.418866     -0.354910
O             0.184098     -0.410165     -0.383831
O             0.309463      0.406289      0.329877
O            -0.054797      0.430648     -0.364301
O            -0.453710     -0.420242      0.401743
O             0.061575     -0.426420      0.354757
O             0.447513      0.410588     -0.398351
data_nwchem_pspw

_audit_creation_date   Thu Aug 29 21:57:15 2024
_audit_creation_method    generated by PSPW module of NWChem


_cell_length_a            10.0667
_cell_length_b             9.1552
_cell_length_c             9.2041
_cell_angle_alpha         90.0000
_cell_angle_beta          90.0000
_cell_angle_gamma         90.0000

_symmetry_space_group_name_H-M     P1  

loop_
_atom_site_type_symbol
_atom_site_fract_x
_atom_site_fract_y
_atom_site_fract_z
Fe            0.145810     -0.241770      0.223326
Fe            0.342641     -0.090490     -0.023636
Fe           -0.150153     -0.092354     -0.214654
Fe           -0.362342     -0.238292      0.020685
H            -0.078917     -0.254108      0.048313
H            -0.397318     -0.078202     -0.198426
H             0.068678     -0.054171     -0.050741
H             0.404665     -0.233592      0.209454
O            -0.195689     -0.259067     -0.092300
O            -0.304913     -0.078406      0.148136
O             0.207066     -0.071038      0.103821
O             0.290288     -0.250895     -0.158689
O            -0.054583     -0.250194      0.150296
O            -0.450622     -0.067715     -0.111936
O             0.047779     -0.082959     -0.146294
O             0.441816     -0.237856      0.107832
Fe            0.144755      0.078801      0.230639
Fe            0.342911      0.245616     -0.025294
Fe           -0.142656      0.242854     -0.219258
Fe           -0.361414      0.092356      0.019641
H            -0.083842      0.100171      0.044141
H            -0.438357      0.244420     -0.210129
H             0.089870      0.275272     -0.058440
H             0.419899      0.066132      0.200578
O            -0.207466      0.081099     -0.101253
O            -0.300553      0.251844      0.171319
O             0.186979      0.244469      0.078944
O             0.297817      0.085190     -0.156450
O            -0.046190      0.088458      0.138018
O            -0.451184      0.257761     -0.107433
O             0.063809      0.239232     -0.152391
O             0.444644      0.084478      0.101533
Fe            0.140876      0.422122      0.207869
Fe            0.350351     -0.414253     -0.025705
Fe           -0.139715     -0.430487     -0.217204
Lu           -0.361384      0.424874      0.033169
H            -0.115236      0.418949      0.044630
H            -0.430185     -0.444168     -0.201824
H             0.072910     -0.426324     -0.038700
H             0.389779      0.372496      0.198556
O            -0.186793      0.410571     -0.077889
O            -0.308405     -0.384298      0.164284
O             0.195912     -0.400083      0.099029
O             0.286300      0.419538     -0.140980
O            -0.055095      0.414314      0.141318
O            -0.452827     -0.414394     -0.105411
O             0.046544     -0.422117     -0.139501
O             0.443290      0.390613      0.109630
Fe            0.140373     -0.255706     -0.271853
Fe            0.354418     -0.075478      0.484588
Fe           -0.163333     -0.084766      0.268609
Fe           -0.342980     -0.257124     -0.472027
H            -0.099721     -0.270060     -0.432413
H            -0.411073     -0.073928      0.299458
H             0.082947     -0.082672      0.446950
H             0.423337     -0.207695     -0.298103
O            -0.193131     -0.249540      0.405899
O            -0.286069     -0.096477     -0.360716
O             0.188428     -0.091708     -0.411761
O             0.324406     -0.231468      0.343342
O            -0.053382     -0.258642     -0.340985
O            -0.456892     -0.065226      0.391142
O             0.056312     -0.083493      0.345212
O             0.454220     -0.234430     -0.391883
Fe            0.144578      0.078887     -0.283766
Fe            0.358955      0.239629      0.486313
Fe           -0.132041      0.260225      0.275511
Fe           -0.353041      0.075968     -0.470718
H            -0.086232      0.081674     -0.459857
H            -0.400209      0.250261      0.309265
H             0.105654      0.239579      0.446347
H             0.402710      0.091509     -0.284674
O            -0.206144      0.086045      0.387873
O            -0.288183      0.245738     -0.348412
O             0.192431      0.249639     -0.413292
O             0.292175      0.079825      0.357031
O            -0.069491      0.067546     -0.356684
O            -0.445665      0.260004      0.408357
O             0.055424      0.264104      0.356155
O             0.454775      0.098634     -0.376985
Fe            0.148636      0.417244     -0.282246
Lu            0.371551     -0.417001      0.456249
Fe           -0.140779     -0.419367      0.287548
Fe           -0.350695      0.408263     -0.473590
H            -0.102294      0.415869     -0.442160
H            -0.394660     -0.408493      0.298304
H             0.077583     -0.428785      0.459186
H             0.427078      0.413759     -0.281012
O            -0.213001      0.426605      0.393679
O            -0.282213     -0.431540     -0.346412
O             0.186675     -0.413149     -0.414771
O             0.305377      0.395178      0.339676
O            -0.058975      0.405505     -0.347940
O            -0.426193     -0.419964      0.409663
O             0.066268     -0.421420      0.353504
O             0.449726      0.415903     -0.382317
data_nwchem_pspw

_audit_creation_date   Fri Aug 30 05:29:46 2024
_audit_creation_method    generated by PSPW module of NWChem


_cell_length_a            10.0667
_cell_length_b             9.1552
_cell_length_c             9.2041
_cell_angle_alpha         90.0000
_cell_angle_beta          90.0000
_cell_angle_gamma         90.0000

_symmetry_space_group_name_H-M     P1  

loop_
_atom_site_type_symbol
_atom_site_fract_x
_atom_site_fract_y
_atom_site_fract_z
Fe            0.138629     -0.241913      0.225459
Fe            0.353380     -0.082927     -0.029804
Fe           -0.152402     -0.073386     -0.214219
Fe           -0.357533     -0.242939      0.012256
H            -0.105313     -0.263709      0.046118
H            -0.395998     -0.070306     -0.201316
H             0.081081     -0.081503     -0.036052
H             0.383879     -0.232285      0.187529
O            -0.189082     -0.237817     -0.088656
O            -0.305483     -0.092616      0.147747
O             0.214181     -0.087360      0.102324
O             0.302850     -0.263261     -0.151867
O            -0.049211     -0.256462      0.133669
O            -0.450951     -0.082922     -0.107309
O             0.051565     -0.075268     -0.136956
O             0.446282     -0.234326      0.105716
Fe            0.149230      0.068764      0.222363
Fe            0.350785      0.240692     -0.025806
Fe           -0.141868      0.260495     -0.239705
Fe           -0.350558      0.075707      0.034250
H            -0.063909      0.077772      0.047454
H            -0.405381      0.203660     -0.198765
H             0.102195      0.242017     -0.059134
H             0.415757      0.070690      0.204072
O            -0.188096      0.090408     -0.089538
O            -0.310711      0.238744      0.170306
O             0.186012      0.244690      0.097623
O             0.305737      0.076265     -0.156819
O            -0.046824      0.086689      0.149441
O            -0.454694      0.222920     -0.112443
O             0.059847      0.256130     -0.155403
O             0.441987      0.085540      0.102986
Fe            0.150244      0.428428      0.215096
Fe            0.366456     -0.423772     -0.026087
Fe           -0.151537     -0.412711     -0.230842
Lu           -0.345096      0.403739      0.022978
H            -0.089465      0.401533      0.041701
H            -0.434134     -0.367408     -0.211441
H             0.069585     -0.413808     -0.048822
H             0.422059      0.425368      0.199162
O            -0.162804      0.420321     -0.107138
O            -0.295349     -0.405800      0.134300
O             0.202006     -0.411853      0.094515
O             0.306667      0.417986     -0.155653
O            -0.057914      0.398281      0.142862
O            -0.442320     -0.401812     -0.111866
O             0.047126     -0.413093     -0.150500
O             0.441302      0.410314      0.096794
Fe            0.148134     -0.243792     -0.262581
Fe            0.354453     -0.082705      0.478287
Fe           -0.147042     -0.085939      0.265950
Fe           -0.358027     -0.238675     -0.479583
H            -0.064484     -0.235105     -0.437180
H            -0.434908     -0.094321      0.300276
H             0.068746     -0.074153      0.463202
H             0.423440     -0.224961     -0.287076
O            -0.205182     -0.255019      0.401908
O            -0.305083     -0.077020     -0.340099
O             0.175864     -0.080576     -0.410558
O             0.301796     -0.238029      0.336290
O            -0.057824     -0.228494     -0.334853
O            -0.458504     -0.069811      0.397300
O             0.041479     -0.072353      0.359711
O             0.459363     -0.241573     -0.384530
Fe            0.145389      0.086977     -0.282150
Fe            0.350171      0.249572      0.469801
Fe           -0.134784      0.238851      0.272885
Fe           -0.344326      0.083859     -0.467110
H            -0.062596      0.057613     -0.443526
H            -0.420832      0.228143      0.310171
H             0.086772      0.261203      0.457668
H             0.402880      0.071391     -0.298571
O            -0.188763      0.080763      0.397318
O            -0.298944      0.265524     -0.340797
O             0.195567      0.249908     -0.405716
O             0.301948      0.080368      0.353667
O            -0.055155      0.082926     -0.343587
O            -0.444563      0.250109      0.412333
O             0.051148      0.251514      0.358740
O             0.447640      0.067231     -0.393732
Fe            0.149753      0.426338     -0.266418
Lu            0.340158     -0.417209      0.488167
Fe           -0.138513     -0.426303      0.272825
Fe           -0.351527      0.420116     -0.469221
H            -0.064116      0.417313     -0.460883
H            -0.417298     -0.401299      0.301697
H             0.068673     -0.409408      0.452407
H             0.432666      0.399391     -0.299243
O            -0.204813      0.408707      0.388855
O            -0.306460     -0.400748     -0.351051
O             0.159689     -0.412664     -0.415555
O             0.309395      0.406442      0.341921
O            -0.061595      0.424679     -0.357619
O            -0.453877     -0.422183      0.393817
O             0.047398     -0.401150      0.343432
O             0.451762      0.408085     -0.401741
data_nwchem_pspw

_audit_creation_date   Fri Aug 30 10:14:52 2024
_audit_creation_method    generated by PSPW module of NWChem


_cell_length_a            10.0667
_cell_length_b             9.1552
_cell_length_c             9.2041
_cell_angle_alpha         90.0000
_cell_angle_beta          90.0000
_cell_angle_gamma         90.0000

_symmetry_space_group_name_H-M     P1  

loop_
_atom_site_type_symbol
_atom_site_fract_x
_atom_site_fract_y
_atom_site_fract_z
Fe            0.137236     -0.242443      0.212244
Fe            0.356031     -0.083310     -0.030902
Fe           -0.134933     -0.090217     -0.224638
Fe           -0.344473     -0.240424      0.026317
H            -0.095146     -0.247424      0.064812
H            -0.410381     -0.114355     -0.205055
H             0.084276     -0.072732     -0.054567
H             0.416646     -0.262273      0.189607
O            -0.188649     -0.258073     -0.090231
O            -0.307884     -0.082012      0.157585
O             0.191745     -0.072552      0.101245
O             0.291967     -0.247383     -0.156755
O            -0.062329     -0.252117      0.163320
O            -0.444360     -0.083790     -0.110404
O             0.055686     -0.085106     -0.153930
O             0.448679     -0.251218      0.094119
Fe            0.147678      0.088734      0.220302
Fe            0.350139      0.248573     -0.023865
Fe           -0.133640      0.242867     -0.233609
Fe           -0.351561      0.093063      0.032566
H            -0.097822      0.068584      0.061398
H            -0.419985      0.231144     -0.212070
H             0.091765      0.229263     -0.047496
H             0.421945      0.087953      0.195668
O            -0.184931      0.086873     -0.086510
O            -0.301504      0.260739      0.167478
O             0.192957      0.255340      0.095637
O             0.284590      0.075034     -0.147528
O            -0.049800      0.089776      0.152386
O            -0.440974      0.253237     -0.111881
O             0.052520      0.252834     -0.141913
O             0.444868      0.089836      0.093027
Fe            0.143895      0.421902      0.226047
Fe            0.349026     -0.402129     -0.038725
Fe           -0.152750     -0.415326     -0.229395
Lu           -0.368040      0.427009      0.031058
H            -0.102261      0.395331      0.046631
H            -0.400793     -0.376464     -0.207603
H             0.096122     -0.439376     -0.046533
H             0.387030      0.374841      0.215617
O            -0.196830      0.416068     -0.118443
O            -0.301916     -0.398279      0.167394
O             0.202286     -0.413317      0.106333
O             0.300534      0.427158     -0.145180
O            -0.059656      0.421464      0.139128
O            -0.443571     -0.383267     -0.113289
O             0.058977     -0.438403     -0.144173
O             0.439491      0.388615      0.127713
Fe            0.138127     -0.266350     -0.277528
Fe            0.346392     -0.084510      0.470918
Fe           -0.150406     -0.082053      0.279987
Fe           -0.346073     -0.246113     -0.474674
H            -0.065384     -0.242401     -0.466125
H            -0.411974     -0.077566      0.304087
H             0.097439     -0.063874      0.430667
H             0.431923     -0.244208     -0.292477
O            -0.192466     -0.253797      0.400610
O            -0.297495     -0.085206     -0.340209
O             0.192444     -0.085839     -0.407059
O             0.299151     -0.229894      0.336865
O            -0.047557     -0.246187     -0.362536
O            -0.445132     -0.071049      0.402679
O             0.046217     -0.101123      0.349038
O             0.457445     -0.237975     -0.390856
Fe            0.142398      0.076072     -0.269403
Fe            0.346981      0.243016      0.484826
Fe           -0.142721      0.251795      0.274356
Fe           -0.349983      0.082059     -0.465863
H            -0.095747      0.070989     -0.456573
H            -0.417506      0.250522      0.308225
H             0.108925      0.243547      0.447529
H             0.403141      0.069400     -0.300957
O            -0.202768      0.084933      0.408211
O            -0.288940      0.237935     -0.342571
O             0.189171      0.224949     -0.400238
O             0.304731      0.082848      0.342584
O            -0.050928      0.060333     -0.362490
O            -0.453677      0.238897      0.406389
O             0.061907      0.234602      0.355781
O             0.442386      0.077135     -0.395157
Fe            0.150070      0.404778     -0.268172
Lu            0.365091     -0.416256      0.463058
Fe           -0.148420     -0.424018      0.279409
Fe           -0.347161      0.413088     -0.468715
H            -0.073625      0.422700     -0.461125
H            -0.386130     -0.426673      0.306030
H             0.077105     -0.413645      0.448527
H             0.422609      0.399713     -0.282728
O            -0.206516      0.418873      0.402390
O            -0.301498     -0.418070     -0.345267
O             0.190478     -0.422273     -0.397999
O             0.293469      0.394195      0.350488
O            -0.037714      0.407856     -0.364804
O            -0.432164     -0.422128      0.397005
O             0.052083     -0.409585      0.355823
O             0.449500      0.406918     -0.382820
data_nwchem_pspw

_audit_creation_date   Fri Aug 30 16:23:39 2024
_audit_creation_method    generated by PSPW module of NWChem


_cell_length_a            10.0667
_cell_length_b             9.1552
_cell_length_c             9.2041
_cell_angle_alpha         90.0000
_cell_angle_beta          90.0000
_cell_angle_gamma         90.0000

_symmetry_space_group_name_H-M     P1  

loop_
_atom_site_type_symbol
_atom_site_fract_x
_atom_site_fract_y
_atom_site_fract_z
Fe            0.142233     -0.249574      0.231225
Fe            0.357830     -0.088925     -0.025731
Fe           -0.150062     -0.079935     -0.218398
Fe           -0.352841     -0.247313      0.017750
H            -0.088792     -0.224791      0.040076
H            -0.421996     -0.080202     -0.204751
H             0.107675     -0.066384     -0.062773
H             0.392227     -0.223525      0.190354
O            -0.196598     -0.256403     -0.111546
O            -0.286123     -0.091668      0.142443
O             0.201196     -0.088764      0.098917
O             0.303510     -0.245643     -0.162834
O            -0.063656     -0.246569      0.139376
O            -0.454938     -0.086544     -0.103064
O             0.050286     -0.069313     -0.145801
O             0.440217     -0.236755      0.101103
Fe            0.153192      0.082332      0.204257
Fe            0.344239      0.252232     -0.022703
Fe           -0.140381      0.256397     -0.245671
Fe           -0.358576      0.078293      0.007225
H            -0.088427      0.092284      0.054864
H            -0.425016      0.234490     -0.217721
H             0.055178      0.233089     -0.054243
H             0.400629      0.066859      0.192119
O            -0.191388      0.088378     -0.094674
O            -0.309710      0.227094      0.151646
O             0.202565      0.249809      0.096306
O             0.309166      0.084813     -0.157363
O            -0.044934      0.086822      0.147801
O            -0.449791      0.240803     -0.112831
O             0.050820      0.253571     -0.154239
O             0.440819      0.084453      0.097626
Fe            0.151747      0.415899      0.220417
Fe            0.354260     -0.416884     -0.020622
Fe           -0.142972     -0.415010     -0.246431
Lu           -0.349454      0.402652      0.030301
H            -0.078949      0.403882      0.049691
H            -0.452954     -0.403710     -0.197653
H             0.052065     -0.405875     -0.045595
H             0.400042      0.416263      0.211599
O            -0.166483      0.427547     -0.102255
O            -0.311033     -0.409936      0.153908
O             0.195370     -0.422244      0.087768
O             0.311640      0.426744     -0.151417
O            -0.048815      0.397820      0.152559
O            -0.459911     -0.421479     -0.096025
O             0.044754     -0.403639     -0.150000
O             0.438377      0.427001      0.118075
Fe            0.140197     -0.242200     -0.259036
Fe            0.341946     -0.081687      0.488594
Fe           -0.144495     -0.086240      0.276877
Fe           -0.349082     -0.248953     -0.481827
H            -0.084835     -0.218098     -0.451993
H            -0.430761     -0.088670      0.292160
H             0.075640     -0.057279      0.452469
H             0.405121     -0.235976     -0.294268
O            -0.190357     -0.249443      0.407266
O            -0.302036     -0.082536     -0.350163
O             0.189507     -0.080579     -0.394945
O             0.293432     -0.233544      0.350066
O            -0.051279     -0.239203     -0.356457
O            -0.444580     -0.084442      0.395424
O             0.041734     -0.078947      0.355122
O             0.448379     -0.242245     -0.389855
Fe            0.156117      0.094219     -0.273947
Fe            0.359258      0.248869      0.493708
Fe           -0.151596      0.237132      0.279390
Fe           -0.355133      0.081409     -0.486071
H            -0.088069      0.073224     -0.445627
H            -0.434430      0.234907      0.296371
H             0.093723      0.253282      0.440394
H             0.432235      0.089456     -0.284654
O            -0.197410      0.079716      0.407046
O            -0.313377      0.252667     -0.345926
O             0.195594      0.273542     -0.392835
O             0.292057      0.086022      0.355501
O            -0.048646      0.078545     -0.349407
O            -0.453185      0.253934      0.397777
O             0.059236      0.238080      0.343588
O             0.444108      0.075139     -0.387568
Fe            0.147062      0.434883     -0.255269
Lu            0.355964     -0.418669      0.481777
Fe           -0.149114     -0.416739      0.268675
Fe           -0.352231      0.416426     -0.477288
H            -0.072728      0.414488     -0.479377
H            -0.392651     -0.403640      0.294034
H             0.075092     -0.398668      0.442638
H             0.414407      0.430865     -0.278539
O            -0.204255      0.410761      0.385512
O            -0.306051     -0.408782     -0.348185
O             0.178237     -0.402446     -0.398340
O             0.295870      0.400046      0.356582
O            -0.052222      0.413107     -0.377190
O            -0.441251     -0.397674      0.388856
O             0.054954     -0.412698      0.340208
O             0.448874      0.407091     -0.375126
data_nwchem_pspw

_audit_creation_date   Fri Aug 30 22:44:24 2024
_audit_creation_method    generated by PSPW module of NWChem


_cell_length_a            10.0667
_cell_length_b             9.1552
_cell_length_c             9.2041
_cell_angle_alpha         90.0000
_cell_angle_beta          90.0000
_cell_angle_gamma         90.0000

_symmetry_space_group_name_H-M     P1  

loop_
_atom_site_type_symbol
_atom_site_fract_x
_atom_site_fract_y
_atom_site_fract_z
Fe            0.142275     -0.255222      0.224947
Fe            0.356264     -0.091933     -0.031118
Fe           -0.143877     -0.092077     -0.199879
Fe           -0.350194     -0.238645      0.030927
H            -0.074731     -0.233101      0.041636
H            -0.398467     -0.097972     -0.194459
H             0.078881     -0.078069     -0.031347
H             0.427676     -0.220801      0.195508
O            -0.184576     -0.254241     -0.077437
O            -0.308978     -0.070405      0.154224
O             0.196427     -0.076406      0.090455
O             0.299630     -0.248866     -0.160818
O            -0.045226     -0.240128      0.142628
O            -0.433544     -0.078774     -0.098915
O             0.053855     -0.090338     -0.134317
O             0.447149     -0.249080      0.097822
Fe            0.166578      0.082606      0.211782
Fe            0.352241      0.245227     -0.029452
Fe           -0.140574      0.232341     -0.230969
Fe           -0.362187      0.093473      0.018862
H            -0.090138      0.064874      0.055149
H            -0.422470      0.242308     -0.214330
H             0.086793      0.221746     -0.042389
H             0.426843      0.086507      0.209710
O            -0.202011      0.072955     -0.083362
O            -0.310902      0.254654      0.160581
O             0.219024      0.256034      0.100515
O             0.292555      0.066814     -0.146453
O            -0.052398      0.099864      0.146134
O            -0.454840      0.245479     -0.114892
O             0.064747      0.249109     -0.138050
O             0.440624      0.078635      0.106630
Fe            0.146936      0.406345      0.213697
Fe            0.352358     -0.418511     -0.040206
Fe           -0.144899     -0.428319     -0.223562
Lu           -0.357266      0.424073      0.024968
H            -0.095791      0.401735      0.049655
H            -0.411144     -0.418976     -0.192598
H             0.058434     -0.438772     -0.040131
H             0.397634      0.410505      0.207437
O            -0.193194      0.397491     -0.102354
O            -0.313530     -0.395752      0.170553
O             0.198741     -0.429699      0.094696
O             0.301750      0.408446     -0.156763
O            -0.054143      0.411953      0.146531
O            -0.463822     -0.406203     -0.105307
O             0.037467     -0.417288     -0.139969
O             0.440441      0.408266      0.108030
Fe            0.128089     -0.239312     -0.273966
Fe            0.359825     -0.081186      0.462204
Fe           -0.150960     -0.074195      0.284937
Fe           -0.345039     -0.238736     -0.457466
H            -0.085507     -0.226848     -0.444306
H            -0.393477     -0.092639      0.305804
H             0.075340     -0.070755      0.444001
H             0.407930     -0.221168     -0.291857
O            -0.192896     -0.247051      0.399872
O            -0.283827     -0.084540     -0.335267
O             0.201785     -0.087723     -0.398656
O             0.301606     -0.235798      0.338060
O            -0.051219     -0.248112     -0.349104
O            -0.433473     -0.086667      0.401464
O             0.042904     -0.073762      0.346463
O             0.449575     -0.236886     -0.386318
Fe            0.145948      0.079937     -0.280170
Fe            0.361553      0.242686      0.481865
Fe           -0.150704      0.260588      0.281613
Fe           -0.342078      0.077213     -0.467979
H            -0.070067      0.077813     -0.450737
H            -0.402260      0.260521      0.295030
H             0.094899      0.267875      0.454272
H             0.426353      0.070875     -0.297847
O            -0.187870      0.097366      0.410755
O            -0.299633      0.243217     -0.345314
O             0.190374      0.249324     -0.423632
O             0.319058      0.091375      0.342941
O            -0.044685      0.076171     -0.348203
O            -0.439293      0.253435      0.396764
O             0.050384      0.254496      0.358643
O             0.444145      0.081067     -0.400422
Fe            0.139899      0.411355     -0.281912
Lu            0.349197     -0.420727      0.468707
Fe           -0.148860     -0.412548      0.265326
Fe           -0.354251      0.422935     -0.466766
H            -0.066924      0.426704     -0.454936
H            -0.395244     -0.421278      0.319261
H             0.068509     -0.414558      0.439268
H             0.405539      0.403061     -0.288308
O            -0.210383      0.421197      0.406408
O            -0.308880     -0.412990     -0.333734
O             0.181067     -0.412282     -0.400477
O             0.306194      0.402109      0.338917
O            -0.044847      0.404948     -0.357454
O            -0.434759     -0.412487      0.415487
O             0.046892     -0.418577      0.337184
O             0.440551      0.408978     -0.389074
data_nwchem_pspw

_audit_creation_date   Sat Aug 31 03:19:35 2024
_audit_creation_method    generated by PSPW module of NWChem


_cell_length_a            10.0667
_cell_length_b             9.1552
_cell_length_c             9.2041
_cell_angle_alpha         90.0000
_cell_angle_beta          90.0000
_cell_angle_gamma         90.0000

_symmetry_space_group_name_H-M     P1  

loop_
_atom_site_type_symbol
_atom_site_fract_x
_atom_site_fract_y
_atom_site_fract_z
Fe            0.145902     -0.251860      0.234540
Fe            0.344968     -0.090009     -0.023318
Fe           -0.138175     -0.085034     -0.220781
Fe           -0.352866     -0.243282      0.005422
H            -0.064265     -0.230304      0.029272
H            -0.414944     -0.082936     -0.215485
H             0.099847     -0.077561     -0.031055
H             0.417993     -0.236377      0.190478
O            -0.192589     -0.246590     -0.099618
O            -0.311155     -0.090315      0.150148
O             0.201758     -0.085091      0.100707
O             0.295816     -0.245549     -0.160287
O            -0.040782     -0.233820      0.130694
O            -0.450897     -0.088046     -0.117256
O             0.065665     -0.085969     -0.131947
O             0.448423     -0.238274      0.091858
Fe            0.147822      0.083067      0.234433
Fe            0.339932      0.258305     -0.019605
Fe           -0.149978      0.246994     -0.236383
Fe           -0.359530      0.078621      0.013118
H            -0.066141      0.083441      0.038467
H            -0.428488      0.246806     -0.197615
H             0.080537      0.281383     -0.049344
H             0.416682      0.068263      0.203827
O            -0.185856      0.081318     -0.096550
O            -0.302383      0.216229      0.149917
O             0.183194      0.245755      0.101717
O             0.308291      0.098194     -0.149848
O            -0.048307      0.085740      0.142333
O            -0.454663      0.244877     -0.096922
O             0.062156      0.262348     -0.148736
O             0.436027      0.082651      0.102994
Fe            0.150070      0.411856      0.221792
Fe            0.356582     -0.412847     -0.025148
Fe           -0.141417     -0.420702     -0.230754
Lu           -0.350491      0.405790      0.038421
H            -0.089668      0.435887      0.044320
H            -0.418965     -0.414704     -0.202658
H             0.101775     -0.434318     -0.046275
H             0.414099      0.397678      0.210373
O            -0.194772      0.409405     -0.112519
O            -0.297504     -0.394465      0.143066
O             0.211960     -0.431413      0.096808
O             0.291187      0.426484     -0.149170
O            -0.060093      0.417119      0.140436
O            -0.458512     -0.404044     -0.106537
O             0.050588     -0.424086     -0.135690
O             0.444555      0.391060      0.111478
Fe            0.140661     -0.241426     -0.276084
Fe            0.352225     -0.079682      0.470071
Fe           -0.146059     -0.090690      0.260577
Fe           -0.339404     -0.245905     -0.478185
H            -0.063942     -0.264424     -0.453622
H            -0.421083     -0.059399      0.291867
H             0.095250     -0.077849      0.451286
H             0.423677     -0.237904     -0.294318
O            -0.198467     -0.243156      0.391422
O            -0.293542     -0.077055     -0.344413
O             0.199721     -0.089624     -0.417678
O             0.304122     -0.240489      0.336310
O            -0.048735     -0.248017     -0.351741
O            -0.450003     -0.071576      0.391656
O             0.057652     -0.095265      0.353925
O             0.454187     -0.226185     -0.393233
Fe            0.150236      0.094369     -0.255848
Fe            0.346782      0.242839      0.487881
Fe           -0.143755      0.240761      0.268165
Fe           -0.354181      0.079736     -0.472508
H            -0.065863      0.085324     -0.445675
H            -0.431067      0.244588      0.304546
H             0.080332      0.268227      0.443808
H             0.418382      0.086809     -0.300607
O            -0.196651      0.076412      0.408540
O            -0.307582      0.248772     -0.344828
O             0.187340      0.245155     -0.398778
O             0.299422      0.080929      0.358237
O            -0.055728      0.087004     -0.341198
O            -0.458479      0.247025      0.404461
O             0.049413      0.256460      0.345286
O             0.446514      0.081339     -0.400582
Fe            0.136950      0.428349     -0.273178
Lu            0.357910     -0.410016      0.472487
Fe           -0.145146     -0.416058      0.266958
Fe           -0.352782      0.410638     -0.464917
H            -0.076969      0.433780     -0.465402
H            -0.429391     -0.392388      0.293659
H             0.089544     -0.408785      0.441929
H             0.399982      0.419985     -0.298461
O            -0.213873      0.415424      0.382153
O            -0.300925     -0.410989     -0.349832
O             0.179420     -0.400895     -0.407142
O             0.299226      0.401211      0.360071
O            -0.062988      0.413300     -0.363073
O            -0.446018     -0.403782      0.397332
O             0.046349     -0.421468      0.345399
O             0.456997      0.418130     -0.383500
data_nwchem_pspw

_audit_creation_date   Sat Aug 31 07:57:41 2024
_audit_creation_method    generated by PSPW module of NWChem


_cell_length_a            10.0667
_cell_length_b             9.1552
_cell_length_c             9.2041
_cell_angle_alpha         90.0000
_cell_angle_beta          90.0000
_cell_angle_gamma         90.0000

_symmetry_space_group_name_H-M     P1  

loop_
_atom_site_type_symbol
_atom_site_fract_x
_atom_site_fract_y
_atom_site_fract_z
Fe            0.142193     -0.248392      0.227391
Fe            0.356304     -0.087230     -0.027027
Fe           -0.136752     -0.076232     -0.221580
Fe           -0.341266     -0.233468      0.017971
H            -0.077063     -0.226852      0.056284
H            -0.427675     -0.069048     -0.205840
H             0.091884     -0.066883     -0.033033
H             0.431354     -0.239719      0.202397
O            -0.181995     -0.256231     -0.093639
O            -0.294811     -0.075265      0.151184
O             0.194624     -0.076719      0.096296
O             0.305521     -0.259549     -0.151747
O            -0.054169     -0.248168      0.154785
O            -0.445389     -0.085575     -0.104064
O             0.055604     -0.077970     -0.133370
O             0.447027     -0.235182      0.098549
Fe            0.138150      0.085736      0.224374
Fe            0.345389      0.248029     -0.031968
Fe           -0.137109      0.254679     -0.236046
Fe           -0.359823      0.083928      0.036642
H            -0.099166      0.081257      0.059873
H            -0.421500      0.203440     -0.211986
H             0.080865      0.264361     -0.045570
H             0.413302      0.099214      0.197355
O            -0.199762      0.091338     -0.090639
O            -0.318150      0.244317      0.172364
O             0.188281      0.246302      0.085613
O             0.305319      0.072578     -0.154038
O            -0.059188      0.072813      0.156201
O            -0.454684      0.240442     -0.120487
O             0.053530      0.241429     -0.143976
O             0.442049      0.092887      0.096942
Fe            0.142177      0.427758      0.212178
Fe            0.361367     -0.413863     -0.028339
Fe           -0.154668     -0.412601     -0.218396
Lu           -0.352062      0.422486      0.010844
H            -0.088526      0.395080      0.043361
H            -0.444353     -0.391929     -0.228216
H             0.089808     -0.424569     -0.060590
H             0.408436      0.416740      0.195871
O            -0.175018      0.420118     -0.096350
O            -0.305290     -0.394958      0.154130
O             0.204195     -0.408596      0.095448
O             0.282892      0.408024     -0.150054
O            -0.072749      0.399633      0.148499
O            -0.444910     -0.406525     -0.125417
O             0.055690     -0.421459     -0.157925
O             0.447468      0.414417      0.099588
Fe            0.154431     -0.255002     -0.261480
Fe            0.349737     -0.080447      0.480913
Fe           -0.143461     -0.080252      0.291497
Fe           -0.341439     -0.246651     -0.479269
H            -0.073994     -0.250324     -0.432358
H            -0.402393     -0.076248      0.300859
H             0.075518     -0.086499      0.463838
H             0.436904     -0.253935     -0.299566
O            -0.202015     -0.243872      0.390239
O            -0.288929     -0.091516     -0.343856
O             0.202192     -0.102447     -0.395459
O             0.293691     -0.243076      0.354574
O            -0.042054     -0.254085     -0.337210
O            -0.447866     -0.078849      0.393788
O             0.052834     -0.073640      0.360790
O             0.464919     -0.248879     -0.400061
Fe            0.151707      0.066491     -0.275720
Fe            0.347663      0.247919      0.470881
Fe           -0.152501      0.257353      0.283722
Fe           -0.351885      0.069899     -0.478075
H            -0.077490      0.104614     -0.452625
H            -0.413151      0.225972      0.304287
H             0.069812      0.255011      0.440400
H             0.400011      0.085167     -0.296993
O            -0.199506      0.083509      0.406840
O            -0.299217      0.241689     -0.354455
O             0.206161      0.236873     -0.396239
O             0.295359      0.086490      0.353073
O            -0.052508      0.090009     -0.354207
O            -0.444099      0.236219      0.406231
O             0.060453      0.258055      0.336980
O             0.455254      0.062981     -0.380602
Fe            0.137764      0.416329     -0.277763
Lu            0.351751     -0.418701      0.480888
Fe           -0.152070     -0.422483      0.279670
Fe           -0.354155      0.412770     -0.472408
H            -0.117338      0.408665     -0.440960
H            -0.411052     -0.446626      0.305042
H             0.085819     -0.425029      0.443106
H             0.439570      0.351101     -0.307008
O            -0.190553      0.409826      0.417850
O            -0.294993     -0.424028     -0.352285
O             0.166099     -0.413618     -0.406290
O             0.301498      0.409228      0.343720
O            -0.064832      0.416537     -0.350611
O            -0.450314     -0.430043      0.403025
O             0.055568     -0.416365      0.339471
O             0.447852      0.407980     -0.392543
data_nwchem_pspw

_audit_creation_date   Sat Aug 31 12:12:40 2024
_audit_creation_method    generated by PSPW module of NWChem


_cell_length_a            10.0667
_cell_length_b             9.1552
_cell_length_c             9.2041
_cell_angle_alpha         90.0000
_cell_angle_beta          90.0000
_cell_angle_gamma         90.0000

_symmetry_space_group_name_H-M     P1  

loop_
_atom_site_type_symbol
_atom_site_fract_x
_atom_site_fract_y
_atom_site_fract_z
Fe            0.146386     -0.246284      0.214506
Fe            0.353926     -0.093868     -0.030709
Fe           -0.143634     -0.073825     -0.229799
Fe           -0.357575     -0.236574      0.019922
H            -0.087883     -0.242925      0.054154
H            -0.425122     -0.062031     -0.211654
H             0.084488     -0.072703     -0.046514
H             0.400653     -0.246471      0.177223
O            -0.195086     -0.243461     -0.087895
O            -0.307422     -0.078230      0.163924
O             0.193778     -0.084851      0.096946
O             0.305276     -0.255464     -0.164445
O            -0.043110     -0.243473      0.149830
O            -0.443905     -0.082689     -0.111138
O             0.053907     -0.073542     -0.147703
O             0.450337     -0.249356      0.084732
Fe            0.153574      0.084664      0.227191
Fe            0.347405      0.242653     -0.046071
Fe           -0.145859      0.251326     -0.229205
Fe           -0.359282      0.077379      0.041359
H            -0.085327      0.093997      0.044269
H            -0.417782      0.235873     -0.218846
H             0.067801      0.230745     -0.039467
H             0.398003      0.080332      0.183416
O            -0.197698      0.089761     -0.089200
O            -0.311986      0.230086      0.173143
O             0.194993      0.243573      0.083284
O             0.306333      0.064410     -0.154547
O            -0.044801      0.080466      0.141119
O            -0.443519      0.255592     -0.118541
O             0.052334      0.241416     -0.142391
O             0.428802      0.086786      0.084224
Fe            0.137192      0.413117      0.213604
Fe            0.361587     -0.423782     -0.038782
Fe           -0.154332     -0.405954     -0.216128
Lu           -0.353591      0.407423      0.037850
H            -0.079379      0.426249      0.041178
H            -0.401601     -0.414761     -0.202862
H             0.089312     -0.421101     -0.042421
H             0.386027      0.394400      0.190813
O            -0.193712      0.419743     -0.109914
O            -0.293537     -0.395311      0.159584
O             0.201523     -0.417405      0.087869
O             0.309922      0.413793     -0.172363
O            -0.066408      0.415240      0.145033
O            -0.440856     -0.407470     -0.105686
O             0.046975     -0.432092     -0.137307
O             0.434746      0.414910      0.101544
Fe            0.146631     -0.255366     -0.263418
Fe            0.341366     -0.077434      0.487262
Fe           -0.146072     -0.091167      0.275931
Fe           -0.352357     -0.248993     -0.487343
H            -0.031787     -0.265057     -0.439266
H            -0.424829     -0.048806      0.308922
H             0.078284     -0.120604      0.452604
H             0.411999     -0.243283     -0.292025
O            -0.199786     -0.245375      0.411021
O            -0.291199     -0.076637     -0.362072
O             0.200270     -0.087145     -0.387882
O             0.301241     -0.234190      0.333085
O            -0.029849     -0.254304     -0.335372
O            -0.455835     -0.063241      0.407308
O             0.051665     -0.077745      0.362075
O             0.452077     -0.238234     -0.388039
Fe            0.149701      0.078106     -0.266985
Fe            0.353128      0.248761      0.473561
Fe           -0.135790      0.244153      0.278276
Fe           -0.341408      0.086605     -0.479405
H            -0.055684      0.082539     -0.450965
H            -0.410596      0.245640      0.310746
H             0.083838      0.259006      0.447245
H             0.409164      0.112404     -0.300830
O            -0.196454      0.080203      0.395948
O            -0.307470      0.244910     -0.341110
O             0.193443      0.243064     -0.399558
O             0.300423      0.084945      0.354866
O            -0.041981      0.087316     -0.348044
O            -0.450392      0.248946      0.406872
O             0.051887      0.250513      0.347361
O             0.448568      0.093017     -0.393858
Fe            0.138841      0.405242     -0.271059
Lu            0.356268     -0.408828      0.470332
Fe           -0.142809     -0.416744      0.282116
Fe           -0.356460      0.425556     -0.473756
H            -0.087506      0.408831     -0.449319
H            -0.403922     -0.389551      0.297193
H             0.088135     -0.440095      0.441343
H             0.392653      0.421524     -0.298721
O            -0.214472      0.410882      0.402182
O            -0.291959     -0.401293     -0.346830
O             0.180883     -0.414705     -0.406044
O             0.293603      0.410396      0.337800
O            -0.059655      0.419100     -0.350464
O            -0.441885     -0.415271      0.393844
O             0.054162     -0.420936      0.342246
O             0.449604      0.419168     -0.383242
data_nwchem_pspw

_audit_creation_date   Sat Aug 31 16:14:10 2024
_audit_creation_method    generated by PSPW module of NWChem


_cell_length_a            10.0667
_cell_length_b             9.1552
_cell_length_c             9.2041
_cell_angle_alpha         90.0000
_cell_angle_beta          90.0000
_cell_angle_gamma         90.0000

_symmetry_space_group_name_H-M     P1  

loop_
_atom_site_type_symbol
_atom_site_fract_x
_atom_site_fract_y
_atom_site_fract_z
Fe            0.137119     -0.248736      0.216980
Fe            0.348264     -0.073086     -0.031436
Fe           -0.149383     -0.083074     -0.235950
Fe           -0.365212     -0.237615      0.015430
H            -0.097647     -0.259220      0.046368
H            -0.444964     -0.080946     -0.209909
H             0.068526     -0.061633     -0.040121
H             0.401599     -0.240508      0.195010
O            -0.194671     -0.253025     -0.101360
O            -0.307746     -0.071846      0.143922
O             0.195518     -0.080563      0.088150
O             0.297412     -0.237821     -0.150268
O            -0.061220     -0.248415      0.146389
O            -0.460960     -0.075011     -0.107440
O             0.027852     -0.065666     -0.135537
O             0.433045     -0.251185      0.093565
Fe            0.150597      0.079944      0.236652
Fe            0.351402      0.259779     -0.010668
Fe           -0.142366      0.239228     -0.228079
Fe           -0.372383      0.078349      0.015261
H            -0.066339      0.071547      0.031611
H            -0.415684      0.226623     -0.220337
H             0.076024      0.250797     -0.048945
H             0.408270      0.089200      0.201513
O            -0.203313      0.089597     -0.094141
O            -0.313705      0.239672      0.152911
O             0.202457      0.251756      0.117894
O             0.317535      0.091244     -0.166501
O            -0.047659      0.084448      0.133094
O            -0.451148      0.257545     -0.127976
O             0.063196      0.240725     -0.150423
O             0.440001      0.079776      0.101199
Fe            0.151243      0.416883      0.240135
Fe            0.362472     -0.407291     -0.020822
Fe           -0.148838     -0.421671     -0.222611
Lu           -0.353498      0.417630      0.016856
H            -0.079740      0.401884      0.047878
H            -0.438392     -0.435463     -0.220111
H             0.056423     -0.400525     -0.037518
H             0.402496      0.421372      0.198036
O            -0.171853      0.409468     -0.096658
O            -0.319923     -0.400616      0.150140
O             0.200727     -0.418362      0.101901
O             0.296951      0.428958     -0.143832
O            -0.065592      0.413479      0.152127
O            -0.463404     -0.404067     -0.124201
O             0.035793     -0.413699     -0.138710
O             0.451114      0.412655      0.104215
Fe            0.137245     -0.242379     -0.263414
Fe            0.350459     -0.083456      0.499895
Fe           -0.150472     -0.082371      0.260938
Fe           -0.353144     -0.249226     -0.481739
H            -0.071459     -0.225513     -0.457228
H            -0.432186     -0.100037      0.301673
H             0.087305     -0.096252      0.445284
H             0.426513     -0.247029     -0.272869
O            -0.212048     -0.249125      0.385273
O            -0.305791     -0.080941     -0.347359
O             0.192415     -0.077322     -0.384145
O             0.297757     -0.231134      0.340679
O            -0.047129     -0.234808     -0.357319
O            -0.461669     -0.088133      0.400677
O             0.043779     -0.078313      0.354163
O             0.445487     -0.252020     -0.375737
Fe            0.155115      0.086853     -0.263549
Fe            0.363892      0.247673      0.475789
Fe           -0.142829      0.238631      0.265313
Fe           -0.342425      0.075972     -0.477656
H            -0.061086      0.057772     -0.451342
H            -0.395461      0.246880      0.308384
H             0.091974      0.259226      0.448130
H             0.422436      0.120561     -0.287623
O            -0.194645      0.068390      0.394484
O            -0.280980      0.240524     -0.358286
O             0.205531      0.250762     -0.398051
O             0.301150      0.074526      0.353290
O            -0.047497      0.074474     -0.348421
O            -0.429057      0.239928      0.408044
O             0.049838      0.248470      0.353452
O             0.462290      0.096278     -0.382612
Fe            0.145376      0.423892     -0.263584
Lu            0.362751     -0.424253      0.471621
Fe           -0.161792     -0.422437      0.276562
Fe           -0.338356      0.418779     -0.465482
H            -0.064039      0.408747     -0.449192
H            -0.407035     -0.420778      0.302201
H             0.066662     -0.420945      0.455324
H             0.449363      0.412667     -0.283698
O            -0.197500      0.402906      0.392068
O            -0.298929     -0.413737     -0.349503
O             0.181748     -0.417673     -0.389192
O             0.314854      0.396752      0.337752
O            -0.040842      0.407612     -0.347722
O            -0.436988     -0.416059      0.399025
O             0.052441     -0.431666      0.351638
O             0.455247      0.415194     -0.387705
data_nwchem_pspw

_audit_creation_date   Sat Aug 31 20:17:14 2024
_audit_creation_method    generated by PSPW module of NWChem


_cell_length_a            10.0667
_cell_length_b             9.1552
_cell_length_c             9.2041
_cell_angle_alpha         90.0000
_cell_angle_beta          90.0000
_cell_angle_gamma         90.0000

_symmetry_space_group_name_H-M     P1  

loop_
_atom_site_type_symbol
_atom_site_fract_x
_atom_site_fract_y
_atom_site_fract_z
Fe            0.137987     -0.243071      0.207866
Fe            0.350206     -0.101612     -0.039374
Fe           -0.143071     -0.084043     -0.227147
Fe           -0.346352     -0.245368      0.022950
H            -0.086817     -0.242158      0.051608
H            -0.407648     -0.074819     -0.215623
H             0.078347     -0.080046     -0.055109
H             0.385356     -0.243193      0.187130
O            -0.198812     -0.266465     -0.083092
O            -0.303029     -0.090837      0.158028
O             0.191186     -0.086785      0.083865
O             0.290314     -0.252802     -0.167017
O            -0.043981     -0.259741      0.145719
O            -0.446094     -0.074352     -0.118175
O             0.049816     -0.073012     -0.155358
O             0.441766     -0.237100      0.095946
Fe            0.153812      0.077716      0.210742
Fe            0.357999      0.252377     -0.013350
Fe           -0.133540      0.237516     -0.206787
Fe           -0.365864      0.073528      0.021776
H            -0.091247      0.069476      0.044664
H            -0.425088      0.250756     -0.192230
H             0.100773      0.253525     -0.044761
H             0.409466      0.049578      0.189522
O            -0.191730      0.067231     -0.085971
O            -0.303706      0.239220      0.164536
O             0.196030      0.252052      0.090415
O             0.308545      0.077179     -0.153253
O            -0.048684      0.074985      0.142435
O            -0.458170      0.253908     -0.093654
O             0.068907      0.250341     -0.145926
O             0.450249      0.082954      0.100731
Fe            0.135192      0.421214      0.215063
Fe            0.350101     -0.422628     -0.035903
Fe           -0.147286     -0.424923     -0.218652
Lu           -0.359892      0.417623      0.031936
H            -0.088795      0.425923      0.043925
H            -0.402223     -0.397324     -0.198984
H             0.099497     -0.421495     -0.042757
H             0.401542      0.400169      0.217069
O            -0.182874      0.404336     -0.093428
O            -0.298055     -0.410071      0.165163
O             0.206753     -0.417283      0.089558
O             0.304228      0.411031     -0.156334
O            -0.062590      0.417955      0.146049
O            -0.459439     -0.411224     -0.114676
O             0.061528     -0.428741     -0.140448
O             0.433779      0.414498      0.119043
Fe            0.133298     -0.253847     -0.272455
Fe            0.339855     -0.080835      0.478018
Fe           -0.148238     -0.082876      0.280779
Fe           -0.349757     -0.246027     -0.467940
H            -0.076175     -0.260739     -0.457764
H            -0.438784     -0.068221      0.305774
H             0.092342     -0.058923      0.449059
H             0.403051     -0.249831     -0.286965
O            -0.192070     -0.239132      0.411463
O            -0.287680     -0.079145     -0.345864
O             0.181831     -0.084194     -0.401347
O             0.305100     -0.228691      0.322008
O            -0.059859     -0.265364     -0.353918
O            -0.453458     -0.065009      0.406881
O             0.060433     -0.072565      0.349581
O             0.445119     -0.251866     -0.382874
Fe            0.152504      0.086324     -0.279321
Fe            0.361674      0.248637      0.459993
Fe           -0.134783      0.252032      0.272047
Fe           -0.349313      0.096933     -0.474328
H            -0.098213      0.073220     -0.442691
H            -0.381142      0.272199      0.309236
H             0.079376      0.275617      0.445940
H             0.427843      0.106176     -0.299780
O            -0.203089      0.080797      0.391075
O            -0.291499      0.244311     -0.335236
O             0.202902      0.257649     -0.403835
O             0.303132      0.071662      0.343341
O            -0.058854      0.093738     -0.348752
O            -0.433436      0.267809      0.395539
O             0.058758      0.251845      0.345511
O             0.448609      0.088327     -0.401342
Fe            0.149475      0.423147     -0.278792
Lu            0.347633     -0.411583      0.473978
Fe           -0.137288     -0.408757      0.283894
Fe           -0.335367      0.412442     -0.458464
H            -0.094859      0.421025     -0.440147
H            -0.402359     -0.405958      0.321243
H             0.093152     -0.411362      0.448435
H             0.424864      0.389072     -0.307348
O            -0.190899      0.423083      0.402819
O            -0.300390     -0.419524     -0.328230
O             0.169244     -0.417291     -0.413386
O             0.284301      0.401581      0.345299
O            -0.054195      0.398286     -0.347673
O            -0.434010     -0.413530      0.418982
O             0.069436     -0.407057      0.343282
O             0.449166      0.394241     -0.408047
data_nwchem_pspw

_audit_creation_date   Sun Sep  1 00:15:32 2024
_audit_creation_method    generated by PSPW module of NWChem


_cell_length_a            10.0667
_cell_length_b             9.1552
_cell_length_c             9.2041
_cell_angle_alpha         90.0000
_cell_angle_beta          90.0000
_cell_angle_gamma         90.0000

_symmetry_space_group_name_H-M     P1  

loop_
_atom_site_type_symbol
_atom_site_fract_x
_atom_site_fract_y
_atom_site_fract_z
Fe            0.141815     -0.255722      0.222425
Fe            0.359179     -0.093535     -0.020419
Fe           -0.133641     -0.076153     -0.232702
Fe           -0.338002     -0.239546      0.020507
H            -0.061961     -0.242003      0.038885
H            -0.397403     -0.076112     -0.199273
H             0.085053     -0.073989     -0.036145
H             0.446527     -0.234099      0.214265
O            -0.179727     -0.234853     -0.114070
O            -0.310738     -0.084919      0.156112
O             0.203032     -0.088282      0.112103
O             0.276263     -0.248858     -0.130662
O            -0.045833     -0.252119      0.142449
O            -0.441510     -0.096777     -0.102800
O             0.058481     -0.067675     -0.136781
O             0.445703     -0.246369      0.110784
Fe            0.144221      0.079973      0.231453
Fe            0.346748      0.243516     -0.011666
Fe           -0.153180      0.252870     -0.223658
Fe           -0.353853      0.076569      0.022776
H            -0.102488      0.082705      0.034822
H            -0.404485      0.238875     -0.205487
H             0.108921      0.250900     -0.038797
H             0.407455      0.065447      0.216225
O            -0.181067      0.080233     -0.091111
O            -0.311910      0.233766      0.163306
O             0.177109      0.243594      0.100358
O             0.307965      0.080487     -0.136899
O            -0.070133      0.070612      0.142069
O            -0.436025      0.239022     -0.106448
O             0.066976      0.270055     -0.135273
O             0.434744      0.069404      0.117660
Fe            0.132855      0.419128      0.219640
Fe            0.358182     -0.413453     -0.016885
Fe           -0.143018     -0.409235     -0.236289
Lu           -0.353670      0.413942      0.014026
H            -0.083183      0.430429      0.034184
H            -0.446988     -0.407584     -0.209121
H             0.067699     -0.442041     -0.043499
H             0.404183      0.403766      0.207280
O            -0.173172      0.430539     -0.102744
O            -0.292888     -0.411692      0.145011
O             0.206204     -0.416898      0.104013
O             0.310202      0.411245     -0.146380
O            -0.053530      0.430239      0.137551
O            -0.452250     -0.422027     -0.105868
O             0.040807     -0.417132     -0.140765
O             0.444973      0.398681      0.112075
Fe            0.130093     -0.244218     -0.262135
Fe            0.343500     -0.085445      0.488404
Fe           -0.146022     -0.077890      0.279966
Fe           -0.341307     -0.234150     -0.464421
H            -0.046876     -0.231001     -0.461786
H            -0.429407     -0.076876      0.300493
H             0.064787     -0.061643      0.452288
H             0.417318     -0.238259     -0.280536
O            -0.188711     -0.243172      0.399435
O            -0.305322     -0.064180     -0.332868
O             0.190030     -0.074898     -0.388286
O             0.301371     -0.232149      0.345570
O            -0.052176     -0.235766     -0.357196
O            -0.455155     -0.095914      0.399074
O             0.048462     -0.077422      0.351199
O             0.453432     -0.240926     -0.377472
Fe            0.150700      0.094260     -0.260990
Fe            0.343648      0.235880      0.469574
Fe           -0.143546      0.236278      0.264575
Fe           -0.354639      0.090968     -0.477163
H            -0.083551      0.111319     -0.458876
H            -0.419254      0.247039      0.286962
H             0.048952      0.254722      0.467430
H             0.398066      0.108163     -0.309204
O            -0.195997      0.081364      0.408430
O            -0.298549      0.252364     -0.355821
O             0.199272      0.255193     -0.404232
O             0.288274      0.075108      0.355748
O            -0.051421      0.102641     -0.358971
O            -0.444290      0.257575      0.389629
O             0.036890      0.245777      0.364456
O             0.437404      0.099248     -0.404762
Fe            0.153471      0.424281     -0.272207
Lu            0.349532     -0.425215      0.469937
Fe           -0.142037     -0.421868      0.263562
Fe           -0.340411      0.418348     -0.486598
H            -0.080529      0.436777     -0.452422
H            -0.407634     -0.440774      0.300270
H             0.082363     -0.407308      0.461950
H             0.416141      0.396425     -0.284308
O            -0.195240      0.410234      0.382577
O            -0.289202     -0.406355     -0.371955
O             0.186841     -0.411759     -0.390526
O             0.288899      0.393174      0.341622
O            -0.052269      0.426260     -0.352307
O            -0.445919     -0.432218      0.393254
O             0.062156     -0.423274      0.360398
O             0.453237      0.407314     -0.381815
data_nwchem_pspw

_audit_creation_date   Sun Sep  1 04:11:05 2024
_audit_creation_method    generated by PSPW module of NWChem


_cell_length_a            10.0667
_cell_length_b             9.1552
_cell_length_c             9.2041
_cell_angle_alpha         90.0000
_cell_angle_beta          90.0000
_cell_angle_gamma         90.0000

_symmetry_space_group_name_H-M     P1  

loop_
_atom_site_type_symbol
_atom_site_fract_x
_atom_site_fract_y
_atom_site_fract_z
Fe            0.148615     -0.231329      0.203304
Fe            0.354871     -0.088200     -0.037259
Fe           -0.143393     -0.083333     -0.216556
Fe           -0.342401     -0.243352      0.024536
H            -0.081141     -0.256318      0.050569
H            -0.426051     -0.070718     -0.211221
H             0.086127     -0.066410     -0.056673
H             0.413025     -0.213383      0.190956
O            -0.204812     -0.256849     -0.094799
O            -0.288256     -0.081904      0.151394
O             0.194253     -0.069248      0.071267
O             0.309582     -0.252181     -0.162364
O            -0.045866     -0.254583      0.147126
O            -0.449358     -0.077178     -0.105992
O             0.046786     -0.092017     -0.151681
O             0.455461     -0.235520      0.100855
Fe            0.141728      0.093711      0.219510
Fe            0.346689      0.255810     -0.026589
Fe           -0.139159      0.242363     -0.224534
Fe           -0.379639      0.075902      0.025998
H            -0.099415      0.085815      0.036986
H            -0.409959      0.250190     -0.205966
H             0.075453      0.247527     -0.059769
H             0.421215      0.068641      0.213051
O            -0.211624      0.059804     -0.083777
O            -0.322612      0.227739      0.173615
O             0.190276      0.263787      0.104704
O             0.309593      0.083524     -0.154784
O            -0.054561      0.091760      0.133410
O            -0.446289      0.262243     -0.108545
O             0.057883      0.227190     -0.160747
O             0.433551      0.076590      0.110479
Fe            0.145942      0.428086      0.231979
Fe            0.353278     -0.409124     -0.032702
Fe           -0.149779     -0.424361     -0.231167
Lu           -0.359055      0.424997      0.045212
H            -0.085127      0.428276      0.043582
H            -0.412585     -0.406674     -0.196670
H             0.067538     -0.431660     -0.045298
H             0.397683      0.424591      0.207831
O            -0.177060      0.415581     -0.091051
O            -0.306324     -0.387856      0.167303
O             0.203206     -0.405387      0.090822
O             0.302828      0.418342     -0.159095
O            -0.058304      0.423581      0.147515
O            -0.443375     -0.396751     -0.097369
O             0.043467     -0.428317     -0.145721
O             0.433391      0.419794      0.107058
Fe            0.147947     -0.256035     -0.267181
Fe            0.350717     -0.069774      0.471087
Fe           -0.141902     -0.085431      0.274428
Fe           -0.339974     -0.269023     -0.462538
H            -0.064824     -0.261384     -0.443449
H            -0.394783     -0.060979      0.284469
H             0.099789     -0.074116      0.436711
H             0.432757     -0.244852     -0.286459
O            -0.182021     -0.253596      0.402164
O            -0.294757     -0.084897     -0.338445
O             0.187642     -0.089082     -0.414369
O             0.299668     -0.222471      0.333693
O            -0.047637     -0.264793     -0.338564
O            -0.449355     -0.083306      0.369433
O             0.046005     -0.073656      0.347596
O             0.451445     -0.239361     -0.389909
Fe            0.150527      0.070895     -0.284232
Fe            0.346812      0.250339      0.470982
Fe           -0.153604      0.235738      0.281778
Fe           -0.359636      0.068746     -0.466986
H            -0.088863      0.084094     -0.469740
H            -0.423659      0.213685      0.298098
H             0.064176      0.213093      0.453809
H             0.408440      0.078380     -0.296722
O            -0.204211      0.069242      0.399380
O            -0.290771      0.230309     -0.356433
O             0.204909      0.240016     -0.385251
O             0.288792      0.094494      0.357369
O            -0.049549      0.091229     -0.373455
O            -0.438991      0.236972      0.397312
O             0.043597      0.242706      0.354837
O             0.442149      0.070771     -0.396633
Fe            0.137758      0.409826     -0.273123
Lu            0.364146     -0.405376      0.475580
Fe           -0.140600     -0.415866      0.263458
Fe           -0.348102      0.397241     -0.483548
H            -0.093106      0.411289     -0.461817
H            -0.394595     -0.376562      0.293373
H             0.072729     -0.418617      0.446590
H             0.412149      0.402927     -0.306475
O            -0.195338      0.415850      0.405580
O            -0.300843     -0.431457     -0.343805
O             0.174669     -0.425801     -0.406202
O             0.313918      0.416742      0.342429
O            -0.062740      0.395423     -0.361468
O            -0.424289     -0.419415      0.387488
O             0.059775     -0.407100      0.342086
O             0.449837      0.406032     -0.403693
data_nwchem_pspw

_audit_creation_date   Sun Sep  1 08:10:04 2024
_audit_creation_method    generated by PSPW module of NWChem


_cell_length_a            10.0667
_cell_length_b             9.1552
_cell_length_c             9.2041
_cell_angle_alpha         90.0000
_cell_angle_beta          90.0000
_cell_angle_gamma         90.0000

_symmetry_space_group_name_H-M     P1  

loop_
_atom_site_type_symbol
_atom_site_fract_x
_atom_site_fract_y
_atom_site_fract_z
Fe            0.147550     -0.261752      0.207771
Fe            0.349761     -0.096169     -0.019503
Fe           -0.139957     -0.073275     -0.211539
Fe           -0.350579     -0.240534      0.038564
H            -0.078910     -0.258785      0.045425
H            -0.422289     -0.057697     -0.184459
H             0.092615     -0.048915     -0.051779
H             0.448365     -0.281298      0.211894
O            -0.196606     -0.253032     -0.102124
O            -0.310418     -0.074668      0.164581
O             0.204174     -0.093759      0.098189
O             0.292955     -0.253332     -0.142342
O            -0.052145     -0.246836      0.145891
O            -0.449734     -0.085890     -0.088353
O             0.055936     -0.066559     -0.146707
O             0.457495     -0.267569      0.105334
Fe            0.158502      0.082559      0.227443
Fe            0.346721      0.247936     -0.032099
Fe           -0.139605      0.254599     -0.235196
Fe           -0.371832      0.076786      0.034016
H            -0.096693      0.093666      0.053238
H            -0.440716      0.237860     -0.214221
H             0.103272      0.252194     -0.049080
H             0.382618      0.089298      0.187121
O            -0.198174      0.094416     -0.099261
O            -0.325159      0.228692      0.166803
O             0.188507      0.242697      0.081347
O             0.313089      0.079036     -0.162595
O            -0.051787      0.073533      0.145620
O            -0.457986      0.242885     -0.112309
O             0.060103      0.251723     -0.147970
O             0.432575      0.091292      0.096096
Fe            0.138736      0.401028      0.234166
Fe            0.365431     -0.420345     -0.015961
Fe           -0.147408     -0.398557     -0.232619
Lu           -0.352637      0.404253      0.009699
H            -0.084509      0.416023      0.043923
H            -0.410656     -0.396711     -0.209704
H             0.100926     -0.414069     -0.049712
H             0.385618      0.411848      0.197934
O            -0.191387      0.429246     -0.106881
O            -0.294647     -0.402234      0.139945
O             0.209178     -0.438640      0.100910
O             0.301446      0.431334     -0.163751
O            -0.061100      0.407037      0.146362
O            -0.457958     -0.411895     -0.119398
O             0.056381     -0.410516     -0.143314
O             0.437993      0.405928      0.108491
Fe            0.142285     -0.241852     -0.266579
Fe            0.357486     -0.088466      0.470424
Fe           -0.146668     -0.074523      0.281650
Fe           -0.356592     -0.241407     -0.479795
H            -0.101879     -0.230222     -0.450826
H            -0.413931     -0.072842      0.299618
H             0.083779     -0.069488      0.444161
H             0.429558     -0.251113     -0.290190
O            -0.183632     -0.240596      0.404737
O            -0.293732     -0.073306     -0.346011
O             0.212886     -0.076497     -0.401349
O             0.313627     -0.243625      0.331331
O            -0.041336     -0.228395     -0.363425
O            -0.451628     -0.067550      0.397713
O             0.055853     -0.070467      0.342515
O             0.454042     -0.256453     -0.390640
Fe            0.166304      0.089822     -0.281271
Fe            0.354992      0.243734      0.492752
Fe           -0.160472      0.247554      0.282788
Fe           -0.338770      0.093987     -0.463073
H            -0.078156      0.057339     -0.425054
H            -0.416731      0.244441      0.314230
H             0.077435      0.243604      0.461938
H             0.442217      0.068224     -0.283328
O            -0.191999      0.080596      0.407590
O            -0.296600      0.247870     -0.347104
O             0.205285      0.263381     -0.393363
O             0.299296      0.079075      0.355089
O            -0.025730      0.102036     -0.350746
O            -0.450828      0.239097      0.415089
O             0.043330      0.245256      0.363668
O             0.468097      0.072419     -0.383179
Fe            0.132076      0.419748     -0.259610
Lu            0.340559     -0.425013      0.472200
Fe           -0.140944     -0.410787      0.266361
Fe           -0.353418      0.432737     -0.476880
H            -0.061859      0.430676     -0.457906
H            -0.396930     -0.426435      0.277907
H             0.054880     -0.405809      0.459515
H             0.439706      0.448703     -0.301950
O            -0.205441      0.420590      0.396036
O            -0.299852     -0.393851     -0.352421
O             0.180483     -0.409473     -0.386072
O             0.292825      0.391470      0.343374
O            -0.054858      0.427735     -0.354671
O            -0.437345     -0.413682      0.370271
O             0.063129     -0.420096      0.356673
O             0.461226      0.418815     -0.401435
data_nwchem_pspw

_audit_creation_date   Sun Sep  1 12:08:38 2024
_audit_creation_method    generated by PSPW module of NWChem


_cell_length_a            10.0667
_cell_length_b             9.1552
_cell_length_c             9.2041
_cell_angle_alpha         90.0000
_cell_angle_beta          90.0000
_cell_angle_gamma         90.0000

_symmetry_space_group_name_H-M     P1  

loop_
_atom_site_type_symbol
_atom_site_fract_x
_atom_site_fract_y
_atom_site_fract_z
Fe            0.135199     -0.253167      0.218494
Fe            0.341114     -0.083645     -0.001806
Fe           -0.136674     -0.101003     -0.229594
Fe           -0.341774     -0.236796      0.020702
H            -0.097370     -0.249596      0.050717
H            -0.420942     -0.084211     -0.191121
H             0.073624     -0.085843     -0.042945
H             0.405132     -0.241926      0.194491
O            -0.198063     -0.258361     -0.090755
O            -0.305140     -0.080673      0.153679
O             0.175901     -0.072216      0.089804
O             0.300255     -0.246537     -0.152224
O            -0.057688     -0.249169      0.145789
O            -0.458905     -0.091060     -0.094167
O             0.042796     -0.084428     -0.143427
O             0.453033     -0.241912      0.100926
Fe            0.143432      0.089030      0.218869
Fe            0.354987      0.260014     -0.042506
Fe           -0.143007      0.223043     -0.237787
Fe           -0.369091      0.081385      0.013529
H            -0.100955      0.083003      0.050990
H            -0.426188      0.237701     -0.216196
H             0.080493      0.243108     -0.044624
H             0.391759      0.090337      0.205004
O            -0.206015      0.066425     -0.098968
O            -0.307569      0.229380      0.153215
O             0.190927      0.256756      0.092200
O             0.322345      0.064489     -0.155637
O            -0.058121      0.091164      0.146707
O            -0.458826      0.255885     -0.118218
O             0.052548      0.241331     -0.145818
O             0.423784      0.092961      0.105740
Fe            0.140545      0.414981      0.223306
Fe            0.342311     -0.406409     -0.016442
Fe           -0.166881     -0.426187     -0.215088
Lu           -0.351405      0.426264      0.037624
H            -0.084613      0.429128      0.036253
H            -0.436871     -0.396233     -0.195359
H             0.078381     -0.433400     -0.038292
H             0.399509      0.418914      0.199526
O            -0.200437      0.400820     -0.104012
O            -0.296686     -0.397419      0.163067
O             0.189007     -0.416074      0.097698
O             0.299360      0.435905     -0.161870
O            -0.059318      0.425394      0.138502
O            -0.460462     -0.416416     -0.095742
O             0.043911     -0.422089     -0.137134
O             0.432304      0.428279      0.100849
Fe            0.145374     -0.259549     -0.278735
Fe            0.355841     -0.070328      0.471937
Fe           -0.143841     -0.081678      0.262231
Fe           -0.347413     -0.242316     -0.477353
H            -0.083591     -0.241262     -0.439523
H            -0.443335     -0.074776      0.297802
H             0.091703     -0.105170      0.438832
H             0.422994     -0.253385     -0.283388
O            -0.192967     -0.227032      0.410662
O            -0.294568     -0.091986     -0.343384
O             0.211148     -0.091315     -0.391041
O             0.298260     -0.236212      0.329987
O            -0.056339     -0.274489     -0.343637
O            -0.443782     -0.078966      0.401397
O             0.050596     -0.074341      0.350795
O             0.457659     -0.242914     -0.381538
Fe            0.151655      0.079463     -0.268263
Fe            0.345849      0.243666      0.482129
Fe           -0.153415      0.251050      0.268110
Fe           -0.344515      0.080090     -0.471364
H            -0.081087      0.052188     -0.460868
H            -0.408623      0.206724      0.305461
H             0.079604      0.237861      0.454588
H             0.411911      0.068384     -0.299064
O            -0.196583      0.079628      0.402236
O            -0.297702      0.246461     -0.349662
O             0.202868      0.242769     -0.386441
O             0.304482      0.088740      0.338801
O            -0.044584      0.063282     -0.363841
O            -0.454269      0.225676      0.398638
O             0.056241      0.251864      0.353850
O             0.455154      0.084634     -0.393995
Fe            0.142069      0.417691     -0.275272
Lu            0.371697     -0.411608      0.472758
Fe           -0.153907     -0.413532      0.284524
Fe           -0.340939      0.414590     -0.480598
H            -0.075979      0.396059     -0.463777
H            -0.395490     -0.411325      0.292569
H             0.078125     -0.420013      0.449022
H             0.447566      0.404876     -0.291108
O            -0.190659      0.408806      0.404270
O            -0.308306     -0.402273     -0.349809
O             0.187298     -0.420915     -0.421692
O             0.297421      0.403826      0.352204
O            -0.061182      0.385261     -0.358870
O            -0.420723     -0.419743      0.392407
O             0.053138     -0.422494      0.344093
O             0.468959      0.413689     -0.391988
data_nwchem_pspw

_audit_creation_date   Sun Sep  1 16:10:38 2024
_audit_creation_method    generated by PSPW module of NWChem


_cell_length_a            10.0667
_cell_length_b             9.1552
_cell_length_c             9.2041
_cell_angle_alpha         90.0000
_cell_angle_beta          90.0000
_cell_angle_gamma         90.0000

_symmetry_space_group_name_H-M     P1  

loop_
_atom_site_type_symbol
_atom_site_fract_x
_atom_site_fract_y
_atom_site_fract_z
Fe            0.135478     -0.251505      0.223491
Fe            0.359986     -0.087111      0.001689
Fe           -0.136318     -0.074266     -0.224240
Fe           -0.355034     -0.246218      0.028647
H            -0.079419     -0.265578      0.038531
H            -0.411615     -0.063134     -0.179897
H             0.074989     -0.073267     -0.038857
H             0.431567     -0.244802      0.215176
O            -0.210319     -0.240808     -0.103970
O            -0.289569     -0.085900      0.166865
O             0.198068     -0.081276      0.112338
O             0.293824     -0.243017     -0.145251
O            -0.045033     -0.260213      0.136115
O            -0.445502     -0.084789     -0.084751
O             0.050478     -0.073735     -0.139231
O             0.462068     -0.243764      0.114799
Fe            0.147960      0.079856      0.228254
Fe            0.352584      0.251847     -0.036786
Fe           -0.135405      0.255040     -0.235903
Fe           -0.350971      0.068792      0.047179
H            -0.083820      0.072680      0.043313
H            -0.398750      0.231770     -0.205589
H             0.100775      0.262975     -0.041987
H             0.417777      0.119744      0.213229
O            -0.187847      0.075924     -0.086060
O            -0.311863      0.236693      0.164770
O             0.191651      0.237561      0.086919
O             0.317818      0.077905     -0.150122
O            -0.048032      0.079153      0.143770
O            -0.438618      0.228420     -0.108948
O             0.061920      0.264819     -0.141043
O             0.448143      0.099927      0.114459
Fe            0.140712      0.411658      0.203586
Fe            0.351272     -0.411464     -0.023290
Fe           -0.149380     -0.412960     -0.224462
Lu           -0.354672      0.407488      0.023558
H            -0.074859      0.400128      0.037405
H            -0.415749     -0.410220     -0.206449
H             0.068468     -0.401535     -0.058558
H             0.405335      0.413947      0.195374
O            -0.155636      0.417180     -0.103602
O            -0.295760     -0.406700      0.150421
O             0.190870     -0.426364      0.086955
O             0.296661      0.431288     -0.157720
O            -0.055644      0.412388      0.145016
O            -0.449743     -0.415692     -0.107794
O             0.052382     -0.397868     -0.160941
O             0.447843      0.411098      0.096131
Fe            0.144052     -0.230648     -0.275835
Fe            0.345722     -0.072279      0.476312
Fe           -0.136569     -0.083255      0.280394
Fe           -0.356383     -0.252045     -0.465995
H            -0.082146     -0.207775     -0.447678
H            -0.412754     -0.096324      0.311636
H             0.077566     -0.094551      0.454453
H             0.414836     -0.231822     -0.298203
O            -0.170865     -0.247012      0.412879
O            -0.297818     -0.086406     -0.346917
O             0.184728     -0.080391     -0.411704
O             0.303638     -0.237683      0.339028
O            -0.055140     -0.239604     -0.348062
O            -0.449599     -0.071343      0.402764
O             0.051398     -0.072018      0.354070
O             0.427176     -0.249271     -0.400689
Fe            0.168160      0.099752     -0.264190
Fe            0.350643      0.247055      0.464411
Fe           -0.144229      0.238668      0.271341
Fe           -0.351800      0.077960     -0.464095
H            -0.048839      0.093065     -0.447385
H            -0.409572      0.226067      0.308954
H             0.086880      0.220126      0.439688
H             0.389870      0.082254     -0.298297
O            -0.180415      0.071716      0.419390
O            -0.296902      0.248607     -0.353728
O             0.206468      0.261620     -0.391660
O             0.304398      0.080675      0.346029
O            -0.033066      0.088652     -0.344138
O            -0.454400      0.239987      0.401915
O             0.054508      0.237515      0.343108
O             0.440262      0.086942     -0.394617
Fe            0.128016      0.425723     -0.273403
Lu            0.346485     -0.418801      0.468035
Fe           -0.143057     -0.418983      0.275344
Fe           -0.360070      0.410237     -0.483870
H            -0.081185      0.425606     -0.461091
H            -0.399708     -0.416206      0.300253
H             0.078174     -0.402539      0.451179
H             0.414220      0.390708     -0.297661
O            -0.208452      0.402410      0.382995
O            -0.308216     -0.423576     -0.347691
O             0.162636     -0.402739     -0.407792
O             0.307140      0.392647      0.314288
O            -0.063442      0.419749     -0.358446
O            -0.439009     -0.399033      0.396780
O             0.056587     -0.420692      0.346066
O             0.443235      0.416425     -0.394420
data_nwchem_pspw

_audit_creation_date   Sun Sep  1 20:15:14 2024
_audit_creation_method    generated by PSPW module of NWChem


_cell_length_a            10.0667
_cell_length_b             9.1552
_cell_length_c             9.2041
_cell_angle_alpha         90.0000
_cell_angle_beta          90.0000
_cell_angle_gamma         90.0000

_symmetry_space_group_name_H-M     P1  

loop_
_atom_site_type_symbol
_atom_site_fract_x
_atom_site_fract_y
_atom_site_fract_z
Fe            0.146752     -0.247263      0.219925
Fe            0.349893     -0.092472      0.000899
Fe           -0.139471     -0.078676     -0.234244
Fe           -0.352032     -0.238453      0.012101
H            -0.063074     -0.238707      0.026430
H            -0.419489     -0.090482     -0.205829
H             0.092741     -0.098313     -0.052912
H             0.401058     -0.261471      0.197089
O            -0.192018     -0.229345     -0.101605
O            -0.300503     -0.077130      0.155377
O             0.190666     -0.078349      0.103044
O             0.293523     -0.269161     -0.153220
O            -0.051280     -0.245361      0.129695
O            -0.454943     -0.089849     -0.108816
O             0.062594     -0.091418     -0.152359
O             0.451191     -0.256769      0.105684
Fe            0.142760      0.089741      0.227989
Fe            0.363641      0.239603     -0.021256
Fe           -0.153234      0.235844     -0.221548
Fe           -0.352216      0.086946      0.040269
H            -0.067241      0.096224      0.034027
H            -0.395030      0.239517     -0.195890
H             0.114258      0.243415     -0.057045
H             0.382221      0.082144      0.218193
O            -0.193664      0.077147     -0.091580
O            -0.295241      0.250298      0.173472
O             0.208311      0.238106      0.094266
O             0.308652      0.078673     -0.145595
O            -0.058229      0.095772      0.137693
O            -0.435580      0.234328     -0.100347
O             0.059938      0.238732     -0.144836
O             0.429429      0.071910      0.123015
Fe            0.130218      0.410211      0.222309
Fe            0.347661     -0.428940     -0.035040
Fe           -0.162799     -0.407130     -0.230524
Lu           -0.356017      0.425028      0.030883
H            -0.104547      0.406951      0.034050
H            -0.423899     -0.391197     -0.209333
H             0.055422     -0.423591     -0.041276
H             0.380767      0.396082      0.194091
O            -0.185383      0.423440     -0.091975
O            -0.299509     -0.394043      0.150799
O             0.198342     -0.414893      0.094507
O             0.295701      0.390300     -0.155502
O            -0.056831      0.419093      0.132973
O            -0.449751     -0.398099     -0.107183
O             0.056183     -0.426329     -0.146395
O             0.436121      0.403843      0.105381
Fe            0.136393     -0.264713     -0.275725
Fe            0.355794     -0.080244      0.481046
Fe           -0.140055     -0.083121      0.256944
Fe           -0.348535     -0.243246     -0.472943
H            -0.081266     -0.266243     -0.455301
H            -0.408038     -0.098192      0.307254
H             0.070509     -0.088882      0.444959
H             0.421118     -0.234773     -0.275874
O            -0.197460     -0.236636      0.405300
O            -0.289295     -0.086048     -0.355270
O             0.205868     -0.085906     -0.398120
O             0.299220     -0.234657      0.339725
O            -0.054806     -0.244858     -0.353429
O            -0.446058     -0.068458      0.399810
O             0.053205     -0.069056      0.343919
O             0.441067     -0.240251     -0.378613
Fe            0.157442      0.072127     -0.270754
Fe            0.355551      0.244374      0.478937
Fe           -0.140592      0.266726      0.277530
Fe           -0.351088      0.088390     -0.481413
H            -0.081950      0.084222     -0.460915
H            -0.418569      0.260434      0.296054
H             0.091721      0.244712      0.457699
H             0.430924      0.043585     -0.294835
O            -0.192728      0.094961      0.402690
O            -0.297351      0.251163     -0.352757
O             0.206203      0.249031     -0.403508
O             0.297932      0.092104      0.350897
O            -0.048540      0.090173     -0.361084
O            -0.451130      0.254656      0.394535
O             0.060143      0.251158      0.357445
O             0.465499      0.065669     -0.391173
Fe            0.138748      0.398111     -0.272695
Lu            0.356872     -0.417278      0.479226
Fe           -0.145156     -0.406106      0.257859
Fe           -0.354003      0.413345     -0.486507
H            -0.091339      0.402475     -0.440591
H            -0.397634     -0.386045      0.292016
H             0.086815     -0.405746      0.439980
H             0.422152      0.384634     -0.294539
O            -0.195148      0.431996      0.396283
O            -0.307025     -0.414297     -0.343931
O             0.175945     -0.422499     -0.402971
O             0.303589      0.405594      0.342882
O            -0.064431      0.411848     -0.340930
O            -0.432839     -0.424291      0.384562
O             0.048076     -0.408915      0.341907
O             0.443387      0.401503     -0.396053
data_nwchem_pspw

_audit_creation_date   Mon Sep  2 00:52:47 2024
_audit_creation_method    generated by PSPW module of NWChem


_cell_length_a            10.0667
_cell_length_b             9.1552
_cell_length_c             9.2041
_cell_angle_alpha         90.0000
_cell_angle_beta          90.0000
_cell_angle_gamma         90.0000

_symmetry_space_group_name_H-M     P1  

loop_
_atom_site_type_symbol
_atom_site_fract_x
_atom_site_fract_y
_atom_site_fract_z
Fe            0.136312     -0.240013      0.216666
Fe            0.345158     -0.074283     -0.028783
Fe           -0.140535     -0.068492     -0.226001
Fe           -0.363779     -0.246672      0.027135
H            -0.090985     -0.246020      0.045607
H            -0.401117     -0.055154     -0.208106
H             0.076731     -0.097355     -0.056550
H             0.421236     -0.257572      0.205113
O            -0.215478     -0.245374     -0.104912
O            -0.306869     -0.098025      0.166493
O             0.184857     -0.073907      0.086933
O             0.299659     -0.237042     -0.145983
O            -0.064490     -0.265616      0.144247
O            -0.440034     -0.073321     -0.110524
O             0.054418     -0.086718     -0.158352
O             0.438204     -0.256493      0.102449
Fe            0.136011      0.095128      0.216188
Fe            0.352042      0.262057     -0.025621
Fe           -0.142221      0.249414     -0.227535
Fe           -0.369942      0.068820      0.036128
H            -0.116780      0.081464      0.048009
H            -0.431945      0.248392     -0.206156
H             0.062700      0.257537     -0.053680
H             0.390815      0.080977      0.205377
O            -0.208226      0.079606     -0.092980
O            -0.314206      0.227398      0.164654
O             0.194399      0.253528      0.101420
O             0.298038      0.083305     -0.158620
O            -0.070382      0.082364      0.144017
O            -0.455570      0.255567     -0.105824
O             0.059593      0.248758     -0.157248
O             0.428407      0.091526      0.104275
Fe            0.132217      0.421991      0.226886
Fe            0.349483     -0.409953     -0.019602
Fe           -0.146558     -0.406319     -0.217324
Lu           -0.347066      0.411029      0.023535
H            -0.081198      0.404123      0.047085
H            -0.419279     -0.405257     -0.208755
H             0.049208     -0.421404     -0.035135
H             0.407603      0.401306      0.206301
O            -0.168356      0.406518     -0.092451
O            -0.315471     -0.400016      0.160448
O             0.195427     -0.411065      0.098637
O             0.309505      0.425437     -0.148916
O            -0.051431      0.411060      0.149630
O            -0.451145     -0.403319     -0.108242
O             0.044303     -0.412486     -0.137119
O             0.449360      0.429238      0.111152
Fe            0.151723     -0.264348     -0.276768
Fe            0.360337     -0.082985      0.489779
Fe           -0.142116     -0.099988      0.268190
Fe           -0.355936     -0.249979     -0.456265
H            -0.079998     -0.259845     -0.460690
H            -0.421105     -0.109444      0.302381
H             0.088602     -0.091164      0.435115
H             0.417336     -0.234772     -0.286874
O            -0.191781     -0.258247      0.411571
O            -0.301016     -0.084385     -0.349753
O             0.195229     -0.091071     -0.400793
O             0.305257     -0.233718      0.336605
O            -0.047729     -0.244522     -0.360106
O            -0.440523     -0.098869      0.404923
O             0.047136     -0.088595      0.340147
O             0.454696     -0.253031     -0.380735
Fe            0.156484      0.092847     -0.289693
Fe            0.356517      0.246349      0.474667
Fe           -0.151504      0.241147      0.290815
Fe           -0.349524      0.068693     -0.490561
H            -0.075547      0.076566     -0.442853
H            -0.423281      0.253743      0.309462
H             0.087986      0.229897      0.448856
H             0.429401      0.079930     -0.300345
O            -0.176134      0.061442      0.408647
O            -0.289304      0.239208     -0.351130
O             0.206069      0.266065     -0.414431
O             0.302273      0.071386      0.349532
O            -0.045411      0.093042     -0.340432
O            -0.453261      0.241705      0.408701
O             0.055171      0.236545      0.349766
O             0.465245      0.080553     -0.399142
Fe            0.143932      0.425560     -0.261122
Lu            0.358575     -0.407589      0.458414
Fe           -0.154094     -0.417609      0.280710
Fe           -0.339694      0.405726     -0.466815
H            -0.087946      0.425254     -0.449214
H            -0.399961     -0.404732      0.314527
H             0.071411     -0.418524      0.450338
H             0.414102      0.396119     -0.296887
O            -0.192331      0.403936      0.410510
O            -0.306065     -0.421436     -0.342467
O             0.198897     -0.419863     -0.407514
O             0.306473      0.396173      0.339414
O            -0.054398      0.410480     -0.352588
O            -0.431685     -0.427503      0.411385
O             0.044545     -0.412854      0.349451
O             0.467063      0.413496     -0.382572
data_nwchem_pspw

_audit_creation_date   Mon Sep  2 05:19:53 2024
_audit_creation_method    generated by PSPW module of NWChem


_cell_length_a            10.0667
_cell_length_b             9.1552
_cell_length_c             9.2041
_cell_angle_alpha         90.0000
_cell_angle_beta          90.0000
_cell_angle_gamma         90.0000

_symmetry_space_group_name_H-M     P1  

loop_
_atom_site_type_symbol
_atom_site_fract_x
_atom_site_fract_y
_atom_site_fract_z
Fe            0.162086     -0.250857      0.215658
Fe            0.343692     -0.080786     -0.042447
Fe           -0.154752     -0.072263     -0.230221
Fe           -0.349847     -0.234819      0.029534
H            -0.067573     -0.227434      0.054357
H            -0.424416     -0.052266     -0.201005
H             0.064970     -0.064723     -0.045696
H             0.430229     -0.238092      0.207035
O            -0.202835     -0.239666     -0.100299
O            -0.294663     -0.088612      0.163722
O             0.190456     -0.082367      0.082255
O             0.290937     -0.255625     -0.144232
O            -0.036919     -0.242368      0.151458
O            -0.451966     -0.081396     -0.103802
O             0.037253     -0.069997     -0.145926
O             0.452065     -0.239973      0.105228
Fe            0.152003      0.079041      0.207787
Fe            0.350277      0.247536     -0.038876
Fe           -0.150329      0.236397     -0.224146
Fe           -0.355384      0.079307      0.033650
H            -0.072068      0.090468      0.040050
H            -0.420450      0.212864     -0.218332
H             0.090303      0.231443     -0.053950
H             0.403708      0.067269      0.193346
O            -0.211827      0.079505     -0.096970
O            -0.302082      0.247584      0.152338
O             0.191931      0.244609      0.082278
O             0.313025      0.073894     -0.168622
O            -0.046637      0.095701      0.140886
O            -0.445232      0.225077     -0.118674
O             0.046563      0.247361     -0.149210
O             0.444829      0.085382      0.098209
Fe            0.137178      0.407348      0.221248
Fe            0.354065     -0.415039     -0.011609
Fe           -0.144760     -0.401043     -0.225863
Lu           -0.363443      0.421546      0.021965
H            -0.078150      0.418964      0.036931
H            -0.419332     -0.417255     -0.207534
H             0.061502     -0.414948     -0.012606
H             0.394559      0.417746      0.202951
O            -0.204451      0.418106     -0.110457
O            -0.294012     -0.396249      0.148717
O             0.201964     -0.418710      0.098849
O             0.317804      0.415693     -0.153265
O            -0.060248      0.423526      0.141287
O            -0.460040     -0.399788     -0.110273
O             0.034758     -0.418084     -0.114346
O             0.431459      0.410251      0.103297
Fe            0.143868     -0.251542     -0.251012
Fe            0.351905     -0.083870      0.491518
Fe           -0.132111     -0.095500      0.269352
Fe           -0.345206     -0.248920     -0.468531
H            -0.086947     -0.240733     -0.450809
H            -0.451140     -0.077613      0.299391
H             0.095484     -0.070182      0.440450
H             0.438727     -0.239056     -0.285711
O            -0.190990     -0.254312      0.410053
O            -0.292473     -0.073321     -0.352747
O             0.194330     -0.108911     -0.404764
O             0.312584     -0.234205      0.349140
O            -0.045737     -0.242632     -0.355914
O            -0.445464     -0.091910      0.400545
O             0.063415     -0.076535      0.341907
O             0.457107     -0.237192     -0.389808
Fe            0.157125      0.082337     -0.280138
Fe            0.358819      0.243532      0.464050
Fe           -0.138954      0.248173      0.271167
Fe           -0.337237      0.087553     -0.486448
H            -0.062709      0.093665     -0.464170
H            -0.411713      0.236764      0.296569
H             0.074245      0.240902      0.460282
H             0.435091      0.083281     -0.300692
O            -0.189404      0.093414      0.400798
O            -0.289431      0.251933     -0.364876
O             0.202658      0.251870     -0.402168
O             0.298607      0.080688      0.341596
O            -0.035546      0.090069     -0.364863
O            -0.443879      0.252193      0.395458
O             0.057498      0.253352      0.357272
O             0.459846      0.073010     -0.401659
Fe            0.137996      0.414492     -0.244784
Lu            0.339405     -0.424735      0.485171
Fe           -0.138097     -0.412238      0.269099
Fe           -0.353336      0.416680     -0.483106
H            -0.051264      0.412865     -0.443732
H            -0.393864     -0.393418      0.314734
H             0.060411     -0.407119      0.452002
H             0.431708      0.406046     -0.289458
O            -0.192640      0.421748      0.395195
O            -0.313956     -0.408467     -0.322258
O             0.187505     -0.421740     -0.371491
O             0.303081      0.410688      0.333835
O            -0.044448      0.402343     -0.340405
O            -0.432160     -0.409147      0.403780
O             0.065674     -0.412984      0.348535
O             0.458077      0.398070     -0.391349
data_nwchem_pspw

_audit_creation_date   Mon Sep  2 09:16:31 2024
_audit_creation_method    generated by PSPW module of NWChem


_cell_length_a            10.0667
_cell_length_b             9.1552
_cell_length_c             9.2041
_cell_angle_alpha         90.0000
_cell_angle_beta          90.0000
_cell_angle_gamma         90.0000

_symmetry_space_group_name_H-M     P1  

loop_
_atom_site_type_symbol
_atom_site_fract_x
_atom_site_fract_y
_atom_site_fract_z
Fe            0.154392     -0.247406      0.218582
Fe            0.349474     -0.089894     -0.023692
Fe           -0.157677     -0.085762     -0.210911
Fe           -0.344693     -0.246234      0.021571
H            -0.087759     -0.258971      0.036831
H            -0.445530     -0.088014     -0.215823
H             0.084204     -0.095626     -0.047213
H             0.428905     -0.250523      0.210908
O            -0.192531     -0.264146     -0.107604
O            -0.309809     -0.088468      0.159672
O             0.198390     -0.080586      0.098516
O             0.289398     -0.258297     -0.134925
O            -0.038570     -0.252925      0.129072
O            -0.464483     -0.081364     -0.113567
O             0.048540     -0.085638     -0.145539
O             0.454247     -0.257614      0.108326
Fe            0.126829      0.085532      0.213429
Fe            0.357327      0.244729     -0.024860
Fe           -0.155316      0.244241     -0.217815
Fe           -0.361552      0.077144      0.043812
H            -0.082268      0.095477      0.048084
H            -0.430092      0.239988     -0.207776
H             0.083573      0.242422     -0.041432
H             0.405217      0.082384      0.208994
O            -0.218733      0.090261     -0.102746
O            -0.312985      0.242434      0.161966
O             0.195758      0.245123      0.091120
O             0.289917      0.083837     -0.144826
O            -0.070274      0.077236      0.150571
O            -0.450096      0.235978     -0.106154
O             0.045310      0.245857     -0.139067
O             0.439172      0.074003      0.109641
Fe            0.141051      0.406873      0.215290
Fe            0.358576     -0.424139     -0.019006
Fe           -0.144023     -0.433909     -0.235721
Lu           -0.349606      0.412570      0.033268
H            -0.087705      0.415343      0.053685
H            -0.410991     -0.428697     -0.208769
H             0.055130     -0.440814     -0.043046
H             0.396022      0.406108      0.189882
O            -0.184900      0.416750     -0.088515
O            -0.291389     -0.403615      0.155695
O             0.201905     -0.419020      0.109777
O             0.300775      0.415816     -0.152285
O            -0.053846      0.413882      0.153831
O            -0.447093     -0.411422     -0.111947
O             0.047243     -0.433593     -0.145498
O             0.439937      0.401647      0.095319
Fe            0.146502     -0.257103     -0.273134
Fe            0.345767     -0.069495      0.486234
Fe           -0.149008     -0.076883      0.283171
Fe           -0.347195     -0.229713     -0.466755
H            -0.092180     -0.252220     -0.449733
H            -0.424838     -0.062339      0.306524
H             0.074802     -0.084093      0.442656
H             0.443067     -0.244404     -0.294344
O            -0.193651     -0.239453      0.401353
O            -0.297690     -0.074368     -0.347089
O             0.193054     -0.086849     -0.386122
O             0.300829     -0.219105      0.344024
O            -0.051178     -0.262604     -0.353818
O            -0.451411     -0.062280      0.407929
O             0.053181     -0.089145      0.340114
O             0.452890     -0.229976     -0.395945
Fe            0.138780      0.085755     -0.269499
Fe            0.338972      0.248827      0.455518
Fe           -0.161887      0.250397      0.293782
Fe           -0.355419      0.089291     -0.471305
H            -0.062248      0.097311     -0.456271
H            -0.422252      0.248055      0.300082
H             0.064098      0.265216      0.445998
H             0.418687      0.098527     -0.300603
O            -0.206022      0.080297      0.408920
O            -0.302704      0.257178     -0.342154
O             0.204697      0.243185     -0.407972
O             0.284315      0.085818      0.342157
O            -0.053861      0.087567     -0.352758
O            -0.453526      0.253258      0.398415
O             0.029677      0.236420      0.353555
O             0.435841      0.081636     -0.402304
Fe            0.155557      0.413397     -0.270504
Lu            0.370093     -0.408608      0.452259
Fe           -0.133944     -0.397222      0.269414
Fe           -0.336121      0.416133     -0.474072
H            -0.081731      0.400689     -0.459044
H            -0.393425     -0.405172      0.300907
H             0.081497     -0.416867      0.448273
H             0.412566      0.415723     -0.310456
O            -0.190079      0.423669      0.399500
O            -0.302937     -0.408640     -0.345039
O             0.204122     -0.422923     -0.399858
O             0.297154      0.406359      0.329163
O            -0.057239      0.403948     -0.357780
O            -0.421668     -0.413839      0.401988
O             0.060386     -0.406343      0.345768
O             0.452560      0.393348     -0.401592
data_nwchem_pspw

_audit_creation_date   Mon Sep  2 13:12:46 2024
_audit_creation_method    generated by PSPW module of NWChem


_cell_length_a            10.0667
_cell_length_b             9.1552
_cell_length_c             9.2041
_cell_angle_alpha         90.0000
_cell_angle_beta          90.0000
_cell_angle_gamma         90.0000

_symmetry_space_group_name_H-M     P1  

loop_
_atom_site_type_symbol
_atom_site_fract_x
_atom_site_fract_y
_atom_site_fract_z
Fe            0.157155     -0.256187      0.227182
Fe            0.352347     -0.077623     -0.011862
Fe           -0.148289     -0.081711     -0.218561
Fe           -0.353700     -0.248029      0.009822
H            -0.065374     -0.235684      0.046684
H            -0.423988     -0.117451     -0.201973
H             0.111400     -0.084906     -0.053917
H             0.428762     -0.249856      0.206553
O            -0.189606     -0.254487     -0.089133
O            -0.303135     -0.095332      0.158538
O             0.181774     -0.090319      0.084692
O             0.311612     -0.234968     -0.152937
O            -0.041881     -0.243531      0.148234
O            -0.448836     -0.093544     -0.103353
O             0.058452     -0.070418     -0.146236
O             0.447430     -0.239242      0.104149
Fe            0.137601      0.078663      0.224008
Fe            0.350451      0.263539     -0.024614
Fe           -0.140384      0.243741     -0.212317
Fe           -0.357887      0.072021      0.029021
H            -0.086004      0.074731      0.051795
H            -0.429576      0.247797     -0.216052
H             0.087754      0.258333     -0.041589
H             0.405747      0.102638      0.203387
O            -0.201898      0.073294     -0.081476
O            -0.289398      0.234580      0.142829
O             0.189992      0.252416      0.096283
O             0.321808      0.091924     -0.159726
O            -0.055652      0.083930      0.151666
O            -0.448381      0.258703     -0.113261
O             0.063429      0.261726     -0.144801
O             0.439169      0.116073      0.104526
Fe            0.143264      0.421306      0.214663
Fe            0.355829     -0.400461     -0.023690
Fe           -0.141556     -0.409647     -0.236207
Lu           -0.354126      0.417954      0.027411
H            -0.075870      0.400184      0.046579
H            -0.415920     -0.424882     -0.216891
H             0.077943     -0.397638     -0.041153
H             0.411065      0.421662      0.202451
O            -0.175504      0.418751     -0.103974
O            -0.294512     -0.398956      0.149262
O             0.197267     -0.416749      0.101843
O             0.308926      0.431282     -0.146134
O            -0.053576      0.407121      0.150061
O            -0.455967     -0.416696     -0.120627
O             0.059657     -0.401197     -0.144566
O             0.446181      0.434159      0.106174
Fe            0.149875     -0.224917     -0.267049
Fe            0.337211     -0.084125      0.470288
Fe           -0.146458     -0.093012      0.272333
Fe           -0.351785     -0.265699     -0.478624
H            -0.089867     -0.224429     -0.457904
H            -0.411404     -0.109366      0.303188
H             0.081637     -0.064372      0.448434
H             0.398006     -0.220559     -0.290015
O            -0.196069     -0.264674      0.397456
O            -0.305258     -0.099627     -0.342381
O             0.182629     -0.051058     -0.413996
O             0.312141     -0.243000      0.343184
O            -0.062217     -0.239507     -0.355532
O            -0.443486     -0.103564      0.402654
O             0.059848     -0.092313      0.348660
O             0.432504     -0.240652     -0.387729
Fe            0.153566      0.101098     -0.273530
Fe            0.353543      0.241566      0.455703
Fe           -0.148240      0.246694      0.277156
Fe           -0.349818      0.067390     -0.480626
H            -0.070548      0.085153     -0.450429
H            -0.413101      0.224206      0.299337
H             0.078244      0.264586      0.443709
H             0.416837      0.066118     -0.305465
O            -0.193635      0.069809      0.395436
O            -0.303217      0.238389     -0.347062
O             0.211771      0.260938     -0.393711
O             0.293115      0.085323      0.332464
O            -0.050797      0.086393     -0.346244
O            -0.448352      0.251525      0.391269
O             0.037217      0.244459      0.349883
O             0.434332      0.079473     -0.408046
Fe            0.155314      0.437396     -0.275050
Lu            0.346545     -0.425737      0.490924
Fe           -0.132739     -0.423638      0.267267
Fe           -0.347428      0.405475     -0.485502
H            -0.066518      0.406005     -0.450152
H            -0.446829     -0.403903      0.290546
H             0.088814     -0.404151      0.464599
H             0.448924      0.375811     -0.295679
O            -0.205529      0.404700      0.388921
O            -0.317191     -0.430874     -0.356088
O             0.165012     -0.395312     -0.399588
O             0.293927      0.397410      0.336944
O            -0.050484      0.415968     -0.347999
O            -0.453273     -0.419038      0.393719
O             0.057377     -0.427454      0.363399
O             0.462710      0.402133     -0.395895
data_nwchem_pspw

_audit_creation_date   Mon Sep  2 17:12:58 2024
_audit_creation_method    generated by PSPW module of NWChem


_cell_length_a            10.0667
_cell_length_b             9.1552
_cell_length_c             9.2041
_cell_angle_alpha         90.0000
_cell_angle_beta          90.0000
_cell_angle_gamma         90.0000

_symmetry_space_group_name_H-M     P1  

loop_
_atom_site_type_symbol
_atom_site_fract_x
_atom_site_fract_y
_atom_site_fract_z
Fe            0.135739     -0.242112      0.213996
Fe            0.355275     -0.105068     -0.028343
Fe           -0.132122     -0.081708     -0.218946
Fe           -0.356110     -0.245573      0.027166
H            -0.079039     -0.249027      0.045817
H            -0.399481     -0.097914     -0.197893
H             0.083209     -0.081442     -0.031311
H             0.395774     -0.269355      0.194466
O            -0.201872     -0.260909     -0.104871
O            -0.316426     -0.086840      0.156661
O             0.187588     -0.080503      0.091834
O             0.287735     -0.267373     -0.156149
O            -0.066812     -0.231415      0.146903
O            -0.447469     -0.095267     -0.107327
O             0.056625     -0.087704     -0.134508
O             0.435572     -0.274681      0.098141
Fe            0.130631      0.090501      0.239067
Fe            0.354634      0.247066     -0.027022
Fe           -0.129960      0.249989     -0.216116
Fe           -0.360698      0.083247      0.017284
H            -0.078841      0.080007      0.040141
H            -0.401253      0.240608     -0.211989
H             0.088101      0.253670     -0.027899
H             0.402935      0.073580      0.193837
O            -0.188446      0.077735     -0.093251
O            -0.308321      0.235103      0.147874
O             0.192505      0.257078      0.092024
O             0.302076      0.075014     -0.150220
O            -0.056152      0.090775      0.143302
O            -0.449460      0.232825     -0.117934
O             0.068754      0.247326     -0.132558
O             0.445955      0.067477      0.100543
Fe            0.141824      0.411739      0.233252
Fe            0.342140     -0.427042     -0.025853
Fe           -0.135980     -0.428228     -0.216162
Lu           -0.368515      0.419202      0.028286
H            -0.089427      0.394450      0.055803
H            -0.414424     -0.379999     -0.201018
H             0.065980     -0.454989     -0.041339
H             0.405284      0.389873      0.199535
O            -0.168563      0.404346     -0.080102
O            -0.305838     -0.413942      0.181526
O             0.210803     -0.419932      0.121060
O             0.308167      0.407037     -0.155691
O            -0.053420      0.418186      0.156030
O            -0.447859     -0.400725     -0.105257
O             0.057985     -0.432226     -0.140944
O             0.428740      0.402866      0.097316
Fe            0.136939     -0.262334     -0.275705
Fe            0.366362     -0.063743      0.454128
Fe           -0.150602     -0.071896      0.264059
Fe           -0.351592     -0.246971     -0.477420
H            -0.067694     -0.247982     -0.452039
H            -0.414527     -0.085755      0.291066
H             0.088756     -0.086236      0.469146
H             0.415409     -0.238319     -0.293572
O            -0.189935     -0.237600      0.412322
O            -0.286886     -0.071062     -0.352604
O             0.203417     -0.083268     -0.399918
O             0.306589     -0.220428      0.334589
O            -0.054732     -0.262376     -0.348317
O            -0.426336     -0.076260      0.394446
O             0.050254     -0.079995      0.371720
O             0.438732     -0.232345     -0.394012
Fe            0.143669      0.068316     -0.263105
Fe            0.367679      0.253858      0.483815
Fe           -0.149007      0.254904      0.265847
Fe           -0.333436      0.088049     -0.478121
H            -0.060201      0.078457     -0.446181
H            -0.405059      0.227594      0.302828
H             0.109540      0.250028      0.452950
H             0.454700      0.068573     -0.305202
O            -0.181950      0.095239      0.399342
O            -0.294945      0.257644     -0.346426
O             0.200920      0.231446     -0.397846
O             0.290121      0.097334      0.337895
O            -0.039870      0.071901     -0.343847
O            -0.434568      0.252470      0.399048
O             0.050320      0.265536      0.369237
O             0.461578      0.087969     -0.406954
Fe            0.150927      0.393162     -0.277294
Lu            0.345983     -0.409113      0.461105
Fe           -0.142316     -0.400576      0.282743
Fe           -0.332801      0.430107     -0.476365
H            -0.092378      0.396949     -0.447204
H            -0.397454     -0.393867      0.311681
H             0.082469     -0.409841      0.462402
H             0.396551      0.413605     -0.307332
O            -0.187658      0.416510      0.405409
O            -0.286551     -0.416112     -0.343152
O             0.169010     -0.443610     -0.406139
O             0.303423      0.397427      0.338735
O            -0.050519      0.406951     -0.351433
O            -0.443102     -0.407924      0.405991
O             0.038193     -0.401610      0.367904
O             0.448915      0.408571     -0.394615
data_nwchem_pspw

_audit_creation_date   Mon Sep  2 21:18:51 2024
_audit_creation_method    generated by PSPW module of NWChem


_cell_length_a            10.0667
_cell_length_b             9.1552
_cell_length_c             9.2041
_cell_angle_alpha         90.0000
_cell_angle_beta          90.0000
_cell_angle_gamma         90.0000

_symmetry_space_group_name_H-M     P1  

loop_
_atom_site_type_symbol
_atom_site_fract_x
_atom_site_fract_y
_atom_site_fract_z
Fe            0.145873     -0.247492      0.219201
Fe            0.347643     -0.083460     -0.035163
Fe           -0.157783     -0.076464     -0.214942
Fe           -0.362852     -0.238642      0.028632
H            -0.085132     -0.259842      0.044403
H            -0.425117     -0.083934     -0.212860
H             0.066066     -0.080894     -0.039923
H             0.408305     -0.225403      0.199341
O            -0.202559     -0.242337     -0.079337
O            -0.305927     -0.064388      0.144664
O             0.193475     -0.081123      0.095501
O             0.297504     -0.243911     -0.158654
O            -0.060791     -0.260087      0.148331
O            -0.461548     -0.077001     -0.113236
O             0.034371     -0.070823     -0.139942
O             0.432583     -0.239397      0.097781
Fe            0.145769      0.087341      0.221642
Fe            0.353471      0.255344     -0.028210
Fe           -0.135710      0.254428     -0.240397
Fe           -0.373470      0.082998      0.003793
H            -0.093849      0.089553      0.046781
H            -0.420196      0.254524     -0.214361
H             0.079107      0.247660     -0.042268
H             0.428604      0.083979      0.193348
O            -0.211619      0.111293     -0.098996
O            -0.317619      0.229231      0.160387
O             0.185888      0.251663      0.087346
O             0.313663      0.087142     -0.152720
O            -0.060368      0.082400      0.146140
O            -0.446119      0.251677     -0.113304
O             0.056892      0.257286     -0.145757
O             0.428367      0.088512      0.089915
Fe            0.147632      0.408969      0.221009
Fe            0.348415     -0.409094     -0.025800
Fe           -0.143528     -0.393408     -0.224620
Lu           -0.337774      0.408780      0.031565
H            -0.087221      0.410319      0.052637
H            -0.406158     -0.409200     -0.195540
H             0.082090     -0.411542     -0.050682
H             0.411268      0.407031      0.196244
O            -0.171917      0.443731     -0.097076
O            -0.296983     -0.394322      0.157003
O             0.182575     -0.423866      0.099030
O             0.294554      0.422003     -0.156457
O            -0.057901      0.403775      0.154044
O            -0.440178     -0.410102     -0.096393
O             0.047403     -0.395628     -0.149551
O             0.445202      0.429537      0.099951
Fe            0.146498     -0.231623     -0.275071
Fe            0.336350     -0.084344      0.469342
Fe           -0.153359     -0.090346      0.268644
Fe           -0.356230     -0.247713     -0.473213
H            -0.083755     -0.201192     -0.446238
H            -0.402278     -0.105430      0.288001
H             0.081594     -0.089593      0.454757
H             0.439718     -0.218287     -0.297397
O            -0.192338     -0.239626      0.416306
O            -0.313889     -0.063765     -0.336418
O             0.188135     -0.057806     -0.405935
O             0.300945     -0.251157      0.341291
O            -0.053522     -0.210941     -0.345667
O            -0.441660     -0.098749      0.383379
O             0.057608     -0.091208      0.353135
O             0.452840     -0.240031     -0.397998
Fe            0.145579      0.089910     -0.244699
Fe            0.354367      0.230454      0.490931
Fe           -0.148826      0.232812      0.274508
Fe           -0.351023      0.079482     -0.493506
H            -0.095152      0.070052     -0.446193
H            -0.419691      0.264981      0.285400
H             0.086656      0.228001      0.443604
H             0.422605      0.069864     -0.305196
O            -0.186872      0.066123      0.397148
O            -0.290440      0.240758     -0.367585
O             0.201991      0.257795     -0.400381
O             0.283059      0.089982      0.354009
O            -0.054761      0.079819     -0.351494
O            -0.456180      0.256182      0.383870
O             0.052070      0.249454      0.348625
O             0.456025      0.066497     -0.403099
Fe            0.140822      0.425246     -0.277739
Lu            0.359707     -0.432747      0.482106
Fe           -0.125861     -0.428155      0.289668
Fe           -0.351736      0.414900     -0.485190
H            -0.075004      0.429207     -0.457857
H            -0.406264     -0.413906      0.296773
H             0.109835     -0.408585      0.449185
H             0.426172      0.406108     -0.287896
O            -0.179406      0.393638      0.404960
O            -0.297988     -0.415973     -0.343846
O             0.186540     -0.415330     -0.403555
O             0.301104      0.402113      0.352464
O            -0.045442      0.429695     -0.357644
O            -0.431963     -0.417124      0.398485
O             0.061870     -0.423120      0.356346
O             0.445888      0.384045     -0.389807
data_nwchem_pspw

_audit_creation_date   Tue Sep  3 01:14:59 2024
_audit_creation_method    generated by PSPW module of NWChem


_cell_length_a            10.0667
_cell_length_b             9.1552
_cell_length_c             9.2041
_cell_angle_alpha         90.0000
_cell_angle_beta          90.0000
_cell_angle_gamma         90.0000

_symmetry_space_group_name_H-M     P1  

loop_
_atom_site_type_symbol
_atom_site_fract_x
_atom_site_fract_y
_atom_site_fract_z
Fe            0.149330     -0.231696      0.210619
Fe            0.367577     -0.089757     -0.016851
Fe           -0.146216     -0.094162     -0.217645
Fe           -0.353131     -0.250380      0.043624
H            -0.098159     -0.258397      0.043150
H            -0.405233     -0.077513     -0.203701
H             0.082868     -0.095955     -0.030464
H             0.418805     -0.235992      0.185641
O            -0.202512     -0.266854     -0.092278
O            -0.309723     -0.088863      0.163990
O             0.216734     -0.069146      0.107640
O             0.287827     -0.256900     -0.140119
O            -0.051506     -0.235249      0.134700
O            -0.434316     -0.094026     -0.104466
O             0.054434     -0.102787     -0.129401
O             0.454132     -0.262551      0.087424
Fe            0.151306      0.093010      0.229270
Fe            0.353142      0.250012     -0.045289
Fe           -0.155651      0.245834     -0.223906
Fe           -0.360070      0.082253      0.030739
H            -0.053166      0.096579      0.055005
H            -0.444856      0.218369     -0.233522
H             0.071697      0.258525     -0.038737
H             0.426261      0.088724      0.187110
O            -0.196047      0.088108     -0.096052
O            -0.307937      0.238728      0.150910
O             0.201988      0.258474      0.087568
O             0.304074      0.072756     -0.145658
O            -0.049810      0.086111      0.159216
O            -0.462040      0.237791     -0.132708
O             0.044734      0.245283     -0.139087
O             0.459703      0.090028      0.086601
Fe            0.150180      0.426157      0.208152
Fe            0.351315     -0.411885     -0.038477
Fe           -0.147166     -0.430460     -0.222536
Lu           -0.371580      0.417705      0.018849
H            -0.096397      0.422205      0.058176
H            -0.418915     -0.399040     -0.221684
H             0.069921     -0.438569     -0.037038
H             0.395295      0.401358      0.204298
O            -0.196088      0.398930     -0.096118
O            -0.297641     -0.419844      0.163433
O             0.207627     -0.411027      0.097843
O             0.303748      0.422386     -0.163374
O            -0.045309      0.413388      0.146477
O            -0.463123     -0.424297     -0.131452
O             0.043075     -0.421164     -0.135284
O             0.431349      0.403966      0.108292
Fe            0.143003     -0.258353     -0.265883
Fe            0.367290     -0.066272      0.466071
Fe           -0.146642     -0.088144      0.285483
Fe           -0.347435     -0.260118     -0.470943
H            -0.078284     -0.264421     -0.452925
H            -0.414401     -0.091898      0.281461
H             0.085624     -0.087092      0.447195
H             0.431208     -0.220559     -0.297009
O            -0.184832     -0.251462      0.409724
O            -0.297383     -0.086632     -0.343964
O             0.207768     -0.085083     -0.389851
O             0.315016     -0.235108      0.320127
O            -0.055557     -0.267701     -0.350182
O            -0.439778     -0.074399      0.384182
O             0.060096     -0.085594      0.346393
O             0.454712     -0.235682     -0.396208
Fe            0.141832      0.067408     -0.257785
Fe            0.349983      0.246291      0.484815
Fe           -0.148069      0.247668      0.275216
Fe           -0.350966      0.082423     -0.474000
H            -0.069013      0.070908     -0.444347
H            -0.430884      0.254350      0.302054
H             0.099637      0.280380      0.440536
H             0.433479      0.052280     -0.294977
O            -0.191298      0.081698      0.408290
O            -0.294389      0.252445     -0.352800
O             0.193661      0.238724     -0.388509
O             0.326153      0.087075      0.329222
O            -0.047289      0.072128     -0.341361
O            -0.451266      0.271394      0.403555
O             0.057966      0.262179      0.346272
O             0.464089      0.082394     -0.391599
Fe            0.146310      0.405435     -0.264154
Lu            0.351082     -0.402670      0.469469
Fe           -0.126202     -0.416256      0.274754
Fe           -0.349638      0.425980     -0.468227
H            -0.102642      0.415757     -0.451273
H            -0.397897     -0.425435      0.295227
H             0.096256     -0.424013      0.446539
H             0.426045      0.425999     -0.304122
O            -0.203078      0.424825      0.406819
O            -0.308140     -0.419950     -0.339374
O             0.190882     -0.427790     -0.398264
O             0.283408      0.404610      0.348211
O            -0.063126      0.400307     -0.355105
O            -0.440636     -0.417941      0.390401
O             0.054473     -0.397537      0.353587
O             0.455785      0.431066     -0.402497
data_nwchem_pspw

_audit_creation_date   Tue Sep  3 05:15:43 2024
_audit_creation_method    generated by PSPW module of NWChem


_cell_length_a            10.0667
_cell_length_b             9.1552
_cell_length_c             9.2041
_cell_angle_alpha         90.0000
_cell_angle_beta          90.0000
_cell_angle_gamma         90.0000

_symmetry_space_group_name_H-M     P1  

loop_
_atom_site_type_symbol
_atom_site_fract_x
_atom_site_fract_y
_atom_site_fract_z
Fe            0.147158     -0.248511      0.216838
Fe            0.349587     -0.088245     -0.031427
Fe           -0.150068     -0.071262     -0.224636
Fe           -0.357630     -0.241427     -0.001239
H            -0.084311     -0.238193      0.048675
H            -0.433591     -0.063261     -0.206944
H             0.079795     -0.082276     -0.041898
H             0.405585     -0.240609      0.199206
O            -0.183644     -0.241368     -0.094280
O            -0.292954     -0.081533      0.126084
O             0.188119     -0.082182      0.086301
O             0.317933     -0.261125     -0.153190
O            -0.046906     -0.246341      0.146782
O            -0.455732     -0.081118     -0.106435
O             0.053252     -0.078322     -0.144292
O             0.439157     -0.242651      0.097702
Fe            0.131886      0.073826      0.228253
Fe            0.349391      0.246595     -0.035647
Fe           -0.141894      0.255256     -0.232004
Fe           -0.351258      0.077607      0.011197
H            -0.069658      0.101666      0.063374
H            -0.420505      0.231915     -0.199119
H             0.111351      0.258500     -0.059040
H             0.395463      0.100462      0.205597
O            -0.190787      0.106402     -0.077968
O            -0.293998      0.223898      0.159750
O             0.188656      0.233534      0.091055
O             0.302291      0.087695     -0.160467
O            -0.059206      0.079390      0.164409
O            -0.455509      0.250759     -0.102728
O             0.060245      0.252288     -0.149125
O             0.433816      0.067286      0.116839
Fe            0.136504      0.396487      0.213296
Fe            0.349500     -0.416458     -0.003454
Fe           -0.133391     -0.398456     -0.239158
Lu           -0.343365      0.418303      0.044349
H            -0.082267      0.410387      0.031738
H            -0.428287     -0.406769     -0.210493
H             0.074903     -0.416047     -0.035659
H             0.396545      0.392001      0.208230
O            -0.178880      0.413079     -0.102392
O            -0.315493     -0.385243      0.172919
O             0.191957     -0.429305      0.105067
O             0.299900      0.435509     -0.143853
O            -0.066246      0.414770      0.138882
O            -0.433310     -0.423566     -0.108682
O             0.052953     -0.391967     -0.134274
O             0.437681      0.402737      0.104627
Fe            0.162516     -0.237279     -0.267250
Fe            0.352865     -0.089465      0.468122
Fe           -0.164208     -0.081582      0.268653
Fe           -0.334950     -0.242766     -0.470291
H            -0.095811     -0.220332     -0.447574
H            -0.431820     -0.099122      0.291013
H             0.078003     -0.079843      0.457545
H             0.408657     -0.229951     -0.299728
O            -0.195529     -0.247933      0.393182
O            -0.304331     -0.073345     -0.338625
O             0.202640     -0.074861     -0.408979
O             0.304830     -0.243683      0.333531
O            -0.050792     -0.243004     -0.357137
O            -0.436520     -0.098240      0.393591
O             0.045727     -0.081992      0.359145
O             0.447659     -0.248934     -0.393999
Fe            0.150151      0.076889     -0.268564
Fe            0.343717      0.242529      0.475157
Fe           -0.158189      0.246909      0.294907
Fe           -0.361486      0.093339     -0.473868
H            -0.080645      0.079110     -0.452945
H            -0.425736      0.242764      0.297469
H             0.091158      0.267803      0.445697
H             0.418544      0.067647     -0.298818
O            -0.200679      0.070786      0.411219
O            -0.313858      0.259776     -0.337629
O             0.195309      0.251665     -0.399625
O             0.283388      0.079838      0.346286
O            -0.058664      0.080453     -0.350354
O            -0.457662      0.258790      0.397146
O             0.050493      0.260888      0.349460
O             0.443881      0.072634     -0.399043
Fe            0.141923      0.427994     -0.273856
Lu            0.356229     -0.430708      0.475124
Fe           -0.144111     -0.408428      0.260976
Fe           -0.352653      0.418485     -0.479350
H            -0.086907      0.403180     -0.456212
H            -0.402719     -0.400194      0.309357
H             0.067791     -0.412850      0.443785
H             0.415968      0.418274     -0.281091
O            -0.190245      0.425600      0.391657
O            -0.284644     -0.415868     -0.352598
O             0.178119     -0.408243     -0.391044
O             0.311443      0.394013      0.316637
O            -0.043550      0.410021     -0.361682
O            -0.432902     -0.417475      0.411214
O             0.053180     -0.427387      0.341303
O             0.452164      0.406982     -0.379364
data_nwchem_pspw

_audit_creation_date   Tue Sep  3 09:18:21 2024
_audit_creation_method    generated by PSPW module of NWChem


_cell_length_a            10.0667
_cell_length_b             9.1552
_cell_length_c             9.2041
_cell_angle_alpha         90.0000
_cell_angle_beta          90.0000
_cell_angle_gamma         90.0000

_symmetry_space_group_name_H-M     P1  

loop_
_atom_site_type_symbol
_atom_site_fract_x
_atom_site_fract_y
_atom_site_fract_z
Fe            0.138842     -0.241840      0.227704
Fe            0.352827     -0.073992     -0.028050
Fe           -0.133850     -0.086729     -0.208717
Fe           -0.361950     -0.238500      0.022296
H            -0.088184     -0.242301      0.033520
H            -0.417673     -0.097477     -0.201466
H             0.074310     -0.076361     -0.035876
H             0.421516     -0.235690      0.204849
O            -0.205299     -0.239545     -0.098132
O            -0.301455     -0.082346      0.155409
O             0.208283     -0.079562      0.094475
O             0.301723     -0.258062     -0.146239
O            -0.045514     -0.226375      0.128450
O            -0.444433     -0.082174     -0.100942
O             0.057101     -0.090300     -0.137600
O             0.448241     -0.242908      0.104703
Fe            0.138465      0.078504      0.224809
Fe            0.346694      0.242511     -0.043098
Fe           -0.137140      0.233256     -0.224052
Fe           -0.349582      0.084220      0.041233
H            -0.063416      0.092002      0.045308
H            -0.439551      0.238506     -0.233846
H             0.098737      0.237880     -0.036754
H             0.406505      0.116398      0.184608
O            -0.192063      0.085116     -0.092008
O            -0.295924      0.252299      0.163654
O             0.193240      0.241434      0.096732
O             0.296179      0.075478     -0.161922
O            -0.047731      0.064153      0.145445
O            -0.458706      0.240184     -0.131406
O             0.069414      0.228730     -0.138692
O             0.447190      0.095371      0.088887
Fe            0.138591      0.412073      0.222834
Fe            0.342107     -0.418078     -0.009570
Fe           -0.132623     -0.437620     -0.235231
Lu           -0.358849      0.411869      0.010818
H            -0.078154      0.393461      0.042525
H            -0.433373     -0.394450     -0.194713
H             0.068541     -0.417098     -0.036687
H             0.396023      0.419985      0.209323
O            -0.169777      0.402545     -0.089342
O            -0.300184     -0.401801      0.149002
O             0.188996     -0.409822      0.101895
O             0.293551      0.409072     -0.146327
O            -0.054718      0.413331      0.146791
O            -0.466532     -0.413466     -0.097744
O             0.063611     -0.418109     -0.141355
O             0.431370      0.420349      0.110333
Fe            0.147327     -0.245706     -0.272207
Fe            0.362420     -0.073464      0.470696
Fe           -0.154675     -0.086400      0.277711
Fe           -0.336911     -0.251777     -0.464181
H            -0.060939     -0.253725     -0.449972
H            -0.411667     -0.082113      0.297146
H             0.067952     -0.088956      0.460274
H             0.408214     -0.237238     -0.289203
O            -0.180124     -0.246771      0.408937
O            -0.289963     -0.088490     -0.351748
O             0.209176     -0.083750     -0.397891
O             0.297565     -0.226960      0.337736
O            -0.042939     -0.244790     -0.346965
O            -0.435856     -0.093650      0.397752
O             0.034793     -0.080194      0.363722
O             0.453266     -0.239102     -0.384039
Fe            0.146618      0.080405     -0.288389
Fe            0.347525      0.249315      0.480638
Fe           -0.154898      0.247807      0.279093
Fe           -0.351491      0.070826     -0.479419
H            -0.075921      0.103697     -0.454368
H            -0.435505      0.278898      0.299169
H             0.053558      0.242986      0.450060
H             0.426482      0.085621     -0.297373
O            -0.210185      0.088098      0.394776
O            -0.295590      0.243039     -0.364171
O             0.192335      0.254515     -0.402361
O             0.309220      0.093520      0.331895
O            -0.058348      0.083092     -0.354232
O            -0.447330      0.258906      0.400548
O             0.032160      0.235419      0.347601
O             0.456582      0.091656     -0.396958
Fe            0.145577      0.415145     -0.265660
Lu            0.350419     -0.399287      0.480759
Fe           -0.133500     -0.414908      0.266846
Fe           -0.347357      0.412015     -0.468743
H            -0.089584      0.416705     -0.462789
H            -0.398770     -0.399037      0.305441
H             0.081668     -0.434507      0.443357
H             0.433805      0.406102     -0.288278
O            -0.193906      0.422885      0.409729
O            -0.295901     -0.428269     -0.326897
O             0.179126     -0.422036     -0.404588
O             0.302370      0.405342      0.343776
O            -0.049379      0.411135     -0.365307
O            -0.433769     -0.398120      0.405840
O             0.053872     -0.424396      0.339930
O             0.449879      0.408694     -0.391141
data_nwchem_pspw

_audit_creation_date   Tue Sep  3 13:33:33 2024
_audit_creation_method    generated by PSPW module of NWChem


_cell_length_a            10.0667
_cell_length_b             9.1552
_cell_length_c             9.2041
_cell_angle_alpha         90.0000
_cell_angle_beta          90.0000
_cell_angle_gamma         90.0000

_symmetry_space_group_name_H-M     P1  

loop_
_atom_site_type_symbol
_atom_site_fract_x
_atom_site_fract_y
_atom_site_fract_z
Fe            0.153742     -0.240413      0.215582
Fe            0.349332     -0.079019     -0.037197
Fe           -0.152773     -0.078915     -0.229388
Fe           -0.356567     -0.247080      0.030772
H            -0.084195     -0.254360      0.035787
H            -0.404909     -0.082658     -0.203451
H             0.087284     -0.089193     -0.047164
H             0.400943     -0.221525      0.196431
O            -0.208069     -0.253330     -0.090293
O            -0.312254     -0.080596      0.159171
O             0.208426     -0.075159      0.087862
O             0.310760     -0.249841     -0.165358
O            -0.053144     -0.246298      0.134908
O            -0.435846     -0.083945     -0.103783
O             0.054003     -0.082270     -0.145330
O             0.438165     -0.240067      0.099794
Fe            0.156526      0.077954      0.227010
Fe            0.357614      0.243793     -0.039080
Fe           -0.151231      0.251023     -0.225575
Fe           -0.347952      0.084304      0.030158
H            -0.070157      0.074898      0.039519
H            -0.405813      0.237475     -0.201691
H             0.084092      0.237367     -0.050229
H             0.414381      0.079724      0.195195
O            -0.199801      0.080898     -0.085524
O            -0.302543      0.231984      0.161024
O             0.204056      0.237807      0.079338
O             0.311426      0.084528     -0.163079
O            -0.047413      0.089973      0.140579
O            -0.443754      0.238544     -0.103016
O             0.054333      0.255158     -0.148964
O             0.452183      0.083011      0.097551
Fe            0.150500      0.399995      0.211125
Fe            0.335418     -0.415410     -0.022669
Fe           -0.156332     -0.401446     -0.217776
Lu           -0.356018      0.418544      0.048000
H            -0.061168      0.402182      0.032295
H            -0.445710     -0.413964     -0.201186
H             0.050433     -0.400373     -0.035460
H             0.407279      0.403729      0.203706
O            -0.198369      0.413572     -0.094217
O            -0.297979     -0.394275      0.161964
O             0.190680     -0.416307      0.111581
O             0.306221      0.416974     -0.149689
O            -0.045491      0.420768      0.133318
O            -0.468021     -0.423022     -0.099524
O             0.040524     -0.411050     -0.138085
O             0.444836      0.415458      0.107367
Fe            0.145530     -0.240832     -0.271757
Fe            0.362178     -0.087073      0.491095
Fe           -0.156490     -0.078653      0.269593
Fe           -0.349371     -0.250557     -0.473016
H            -0.078873     -0.256370     -0.448770
H            -0.417238     -0.092675      0.291000
H             0.078749     -0.092481      0.434319
H             0.414240     -0.250070     -0.294565
O            -0.198159     -0.258957      0.398228
O            -0.299036     -0.078120     -0.352412
O             0.186154     -0.075941     -0.416104
O             0.317470     -0.239107      0.342787
O            -0.048317     -0.263796     -0.349762
O            -0.439710     -0.096131      0.394930
O             0.061979     -0.093898      0.330252
O             0.448892     -0.260308     -0.393287
Fe            0.140245      0.078407     -0.272735
Fe            0.355416      0.243484      0.495091
Fe           -0.140939      0.251472      0.277599
Fe           -0.349620      0.091534     -0.492319
H            -0.099597      0.102608     -0.448876
H            -0.420158      0.252791      0.287508
H             0.076842      0.271276      0.439390
H             0.433926      0.098816     -0.291414
O            -0.176907      0.082983      0.408767
O            -0.306917      0.259699     -0.349411
O             0.201212      0.250335     -0.393522
O             0.311267      0.077472      0.350905
O            -0.061828      0.093303     -0.350985
O            -0.440753      0.256669      0.391366
O             0.054887      0.259406      0.337695
O             0.454935      0.090123     -0.394162
Fe            0.143881      0.424583     -0.261926
Lu            0.352216     -0.423362      0.463059
Fe           -0.140284     -0.415675      0.260070
Fe           -0.354448      0.409588     -0.481412
H            -0.083321      0.433603     -0.436163
H            -0.382417     -0.408055      0.304100
H             0.082649     -0.421372      0.442207
H             0.429218      0.409579     -0.284373
O            -0.201398      0.423358      0.392264
O            -0.320402     -0.412341     -0.343916
O             0.187806     -0.417996     -0.404046
O             0.299816      0.387709      0.342858
O            -0.057232      0.412029     -0.337986
O            -0.428734     -0.424393      0.397256
O             0.061092     -0.411092      0.340264
O             0.451393      0.402904     -0.386690
data_nwchem_pspw

_audit_creation_date   Tue Sep  3 23:42:29 2024
_audit_creation_method    generated by PSPW module of NWChem


_cell_length_a            10.0667
_cell_length_b             9.1552
_cell_length_c             9.2041
_cell_angle_alpha         90.0000
_cell_angle_beta          90.0000
_cell_angle_gamma         90.0000

_symmetry_space_group_name_H-M     P1  

loop_
_atom_site_type_symbol
_atom_site_fract_x
_atom_site_fract_y
_atom_site_fract_z
Fe            0.137109     -0.230066      0.213741
Fe            0.354403     -0.085568     -0.032256
Fe           -0.151225     -0.075251     -0.226239
Fe           -0.365567     -0.263080      0.027967
H            -0.090253     -0.264310      0.040110
H            -0.425067     -0.081082     -0.202071
H             0.079503     -0.092134     -0.049053
H             0.400117     -0.246777      0.228108
O            -0.210586     -0.252887     -0.116093
O            -0.301369     -0.109895      0.140251
O             0.210638     -0.076191      0.098134
O             0.272739     -0.252442     -0.129512
O            -0.058001     -0.262735      0.138345
O            -0.450483     -0.072956     -0.100959
O             0.049796     -0.078294     -0.146554
O             0.435592     -0.262363      0.129205
Fe            0.141548      0.086379      0.215668
Fe            0.360645      0.252818     -0.027506
Fe           -0.139491      0.249740     -0.240422
Fe           -0.341254      0.071852      0.033133
H            -0.091119      0.065327      0.050447
H            -0.413958      0.218638     -0.199606
H             0.075249      0.242803     -0.028853
H             0.451358      0.081374      0.214142
O            -0.207978      0.084402     -0.112320
O            -0.296870      0.233397      0.155465
O             0.204648      0.256767      0.095754
O             0.305058      0.091479     -0.158389
O            -0.061438      0.067717      0.150252
O            -0.442529      0.247678     -0.104320
O             0.061539      0.237048     -0.131719
O             0.461583      0.067289      0.111629
Fe            0.142415      0.421332      0.221850
Fe            0.343571     -0.419209     -0.005008
Fe           -0.132190     -0.397099     -0.234077
Lu           -0.345796      0.411534      0.010956
H            -0.075792      0.438622      0.053962
H            -0.439397     -0.394947     -0.200229
H             0.093929     -0.402176     -0.039738
H             0.415290      0.407253      0.209823
O            -0.169544      0.410001     -0.111493
O            -0.296800     -0.403164      0.148222
O             0.192002     -0.414762      0.106241
O             0.297157      0.421127     -0.151125
O            -0.045276      0.403883      0.151083
O            -0.465060     -0.406851     -0.099822
O             0.054575     -0.416635     -0.135367
O             0.454819      0.412041      0.113786
Fe            0.144946     -0.268609     -0.281683
Fe            0.345294     -0.074608      0.479579
Fe           -0.144333     -0.092683      0.274386
Fe           -0.356299     -0.239719     -0.470306
H            -0.091504     -0.242573     -0.454459
H            -0.432075     -0.101158      0.290113
H             0.089742     -0.077135      0.449737
H             0.410429     -0.257647     -0.277486
O            -0.201642     -0.243396      0.414306
O            -0.306820     -0.078027     -0.346561
O             0.201372     -0.085806     -0.395358
O             0.296740     -0.232319      0.351281
O            -0.047842     -0.242719     -0.357300
O            -0.455988     -0.107735      0.391600
O             0.054423     -0.082961      0.351500
O             0.449971     -0.230837     -0.369633
Fe            0.148999      0.084433     -0.266720
Fe            0.341146      0.247425      0.480998
Fe           -0.146351      0.247519      0.269485
Fe           -0.353679      0.086948     -0.486565
H            -0.058347      0.075055     -0.458451
H            -0.430750      0.245759      0.292983
H             0.082399      0.263170      0.443073
H             0.422051      0.089160     -0.293843
O            -0.205806      0.088355      0.391213
O            -0.294873      0.241613     -0.354248
O             0.188238      0.251274     -0.401330
O             0.291612      0.088079      0.360222
O            -0.038932      0.078008     -0.357459
O            -0.463761      0.261163      0.389872
O             0.062523      0.249275      0.340438
O             0.447948      0.092202     -0.395860
Fe            0.126785      0.410808     -0.258189
Lu            0.364424     -0.411446      0.478760
Fe           -0.145949     -0.413927      0.284975
Fe           -0.360172      0.416103     -0.459748
H            -0.087421      0.409670     -0.459470
H            -0.386013     -0.414702      0.306247
H             0.069177     -0.393458      0.447848
H             0.420940      0.425002     -0.286396
O            -0.204630      0.414975      0.399665
O            -0.302486     -0.428659     -0.331199
O             0.185281     -0.431092     -0.396267
O             0.308783      0.412831      0.341310
O            -0.046771      0.415912     -0.363471
O            -0.440001     -0.416375      0.395029
O             0.047072     -0.400794      0.343783
O             0.452693      0.408861     -0.385054
data_nwchem_pspw

_audit_creation_date   Wed Sep  4 04:30:36 2024
_audit_creation_method    generated by PSPW module of NWChem


_cell_length_a            10.0667
_cell_length_b             9.1552
_cell_length_c             9.2041
_cell_angle_alpha         90.0000
_cell_angle_beta          90.0000
_cell_angle_gamma         90.0000

_symmetry_space_group_name_H-M     P1  

loop_
_atom_site_type_symbol
_atom_site_fract_x
_atom_site_fract_y
_atom_site_fract_z
Fe            0.146379     -0.237251      0.205645
Fe            0.349566     -0.072836     -0.023930
Fe           -0.129493     -0.076295     -0.227034
Fe           -0.352234     -0.242344      0.019717
H            -0.092901     -0.236177      0.052428
H            -0.400702     -0.089990     -0.204656
H             0.098637     -0.083814     -0.050929
H             0.399099     -0.220743      0.199816
O            -0.204301     -0.244093     -0.097413
O            -0.306981     -0.088317      0.160998
O             0.182738     -0.073103      0.084738
O             0.306522     -0.238002     -0.146214
O            -0.062107     -0.241836      0.152489
O            -0.434697     -0.091373     -0.104720
O             0.064940     -0.088257     -0.152480
O             0.443799     -0.239735      0.106043
Fe            0.148086      0.091142      0.225098
Fe            0.359593      0.249630     -0.034165
Fe           -0.134005      0.244738     -0.227092
Fe           -0.339905      0.080901      0.029378
H            -0.083881      0.089951      0.051560
H            -0.434073      0.229886     -0.207453
H             0.105463      0.253755     -0.061154
H             0.411862      0.078091      0.206275
O            -0.174098      0.090750     -0.085482
O            -0.311063      0.236874      0.169818
O             0.203744      0.236745      0.078348
O             0.316890      0.073366     -0.168453
O            -0.066216      0.092165      0.156938
O            -0.445223      0.232458     -0.102484
O             0.061218      0.246966     -0.157189
O             0.450554      0.076881      0.109207
Fe            0.124842      0.407452      0.205121
Fe            0.340111     -0.408013     -0.024929
Fe           -0.149422     -0.408403     -0.227861
Lu           -0.368606      0.426404      0.041573
H            -0.104849      0.407695      0.040969
H            -0.421561     -0.391057     -0.199935
H             0.090360     -0.429973     -0.059751
H             0.375448      0.410892      0.195372
O            -0.175930      0.420509     -0.089504
O            -0.294735     -0.394534      0.165873
O             0.164536     -0.420107      0.083446
O             0.293031      0.415094     -0.165338
O            -0.060713      0.395926      0.144960
O            -0.466630     -0.404325     -0.106807
O             0.057300     -0.416108     -0.159897
O             0.425007      0.428702      0.104230
Fe            0.151947     -0.252138     -0.269499
Fe            0.361619     -0.088271      0.483242
Fe           -0.152451     -0.086267      0.268255
Fe           -0.344699     -0.255197     -0.455981
H            -0.080296     -0.269196     -0.459403
H            -0.419841     -0.083455      0.298091
H             0.096418     -0.105288      0.437374
H             0.417845     -0.230358     -0.287632
O            -0.193483     -0.259679      0.416478
O            -0.297483     -0.069734     -0.331443
O             0.195614     -0.090903     -0.410202
O             0.308393     -0.233541      0.326174
O            -0.049812     -0.250576     -0.358657
O            -0.439722     -0.084152      0.400587
O             0.054529     -0.090386      0.343993
O             0.454807     -0.234292     -0.385420
Fe            0.154483      0.071957     -0.282966
Fe            0.368927      0.234706      0.456312
Fe           -0.146602      0.248049      0.280022
Fe           -0.342790      0.076282     -0.477222
H            -0.089376      0.047950     -0.461032
H            -0.410343      0.244169      0.288218
H             0.099164      0.262182      0.452797
H             0.420857      0.069958     -0.306539
O            -0.197325      0.086920      0.401692
O            -0.304074      0.245868     -0.340791
O             0.198539      0.236966     -0.415667
O             0.300998      0.076951      0.341440
O            -0.053727      0.078381     -0.367016
O            -0.436521      0.251222      0.391912
O             0.057687      0.252957      0.355246
O             0.457224      0.072222     -0.405699
Fe            0.139539      0.411328     -0.281869
Lu            0.346223     -0.416947      0.469162
Fe           -0.138676     -0.425442      0.288198
Fe           -0.352782      0.411600     -0.456762
H            -0.086505      0.424907     -0.456329
H            -0.383694     -0.388061      0.324626
H             0.089657     -0.412547      0.453459
H             0.406905      0.408938     -0.310205
O            -0.184883      0.413422      0.422603
O            -0.318019     -0.418872     -0.322696
O             0.184435     -0.414296     -0.401490
O             0.296985      0.400053      0.338119
O            -0.054760      0.428518     -0.354157
O            -0.428918     -0.404629      0.414308
O             0.058958     -0.412567      0.354006
O             0.450390      0.397887     -0.404794
data_nwchem_pspw

_audit_creation_date   Wed Sep  4 09:15:18 2024
_audit_creation_method    generated by PSPW module of NWChem


_cell_length_a            10.0667
_cell_length_b             9.1552
_cell_length_c             9.2041
_cell_angle_alpha         90.0000
_cell_angle_beta          90.0000
_cell_angle_gamma         90.0000

_symmetry_space_group_name_H-M     P1  

loop_
_atom_site_type_symbol
_atom_site_fract_x
_atom_site_fract_y
_atom_site_fract_z
Fe            0.149640     -0.240723      0.221116
Fe            0.359538     -0.080878     -0.012498
Fe           -0.132432     -0.075906     -0.218007
Fe           -0.364544     -0.264137      0.013847
H            -0.100248     -0.231570      0.040618
H            -0.435468     -0.103545     -0.205592
H             0.080593     -0.074115     -0.030374
H             0.415022     -0.244263      0.215038
O            -0.197590     -0.241343     -0.107460
O            -0.309097     -0.092007      0.146773
O             0.192989     -0.078627      0.098609
O             0.291848     -0.251662     -0.125431
O            -0.052545     -0.247936      0.133034
O            -0.450225     -0.102350     -0.100571
O             0.065034     -0.073716     -0.135515
O             0.445034     -0.248900      0.113313
Fe            0.142075      0.083358      0.251073
Fe            0.346976      0.248887     -0.024796
Fe           -0.143024      0.253770     -0.224823
Fe           -0.361818      0.072915      0.031472
H            -0.072799      0.100013      0.057468
H            -0.453771      0.207136     -0.212044
H             0.095701      0.247007     -0.060950
H             0.403815      0.076730      0.206698
O            -0.190158      0.097410     -0.078892
O            -0.304073      0.230877      0.143971
O             0.198964      0.242877      0.100031
O             0.311456      0.081730     -0.149382
O            -0.043704      0.087933      0.157693
O            -0.463319      0.232015     -0.111458
O             0.057775      0.254798     -0.158750
O             0.445456      0.085072      0.113117
Fe            0.152092      0.399536      0.214278
Fe            0.347188     -0.422271     -0.016491
Fe           -0.140429     -0.416074     -0.255328
Lu           -0.344413      0.414108      0.018374
H            -0.063537      0.389073      0.040856
H            -0.435542     -0.412837     -0.208597
H             0.053980     -0.450061     -0.050816
H             0.389093      0.388691      0.202548
O            -0.181389      0.431896     -0.116754
O            -0.302136     -0.406365      0.154428
O             0.196189     -0.409281      0.099061
O             0.302312      0.416387     -0.145791
O            -0.047488      0.404484      0.144107
O            -0.464875     -0.435247     -0.111086
O             0.043854     -0.425630     -0.151046
O             0.426189      0.413596      0.107477
Fe            0.138489     -0.254083     -0.256076
Fe            0.351043     -0.084971      0.496747
Fe           -0.145839     -0.087036      0.263031
Fe           -0.350634     -0.238127     -0.480738
H            -0.075681     -0.240047     -0.456908
H            -0.435798     -0.093081      0.297049
H             0.078041     -0.096755      0.447369
H             0.399329     -0.247433     -0.282994
O            -0.177880     -0.251065      0.407915
O            -0.298135     -0.087925     -0.339934
O             0.190501     -0.089099     -0.389728
O             0.304176     -0.228819      0.350865
O            -0.050933     -0.226109     -0.355481
O            -0.440749     -0.080424      0.400536
O             0.043549     -0.093914      0.349501
O             0.442620     -0.264789     -0.376479
Fe            0.151728      0.093566     -0.279693
Fe            0.361346      0.244581      0.477359
Fe           -0.162658      0.245925      0.287542
Fe           -0.350673      0.095584     -0.475505
H            -0.088173      0.096609     -0.451927
H            -0.431896      0.220539      0.295604
H             0.073482      0.243687      0.463765
H             0.418319      0.077589     -0.291728
O            -0.193440      0.082023      0.392514
O            -0.302467      0.259712     -0.349519
O             0.203124      0.254367     -0.415542
O             0.289932      0.073707      0.369766
O            -0.051689      0.091018     -0.352057
O            -0.455077      0.234926      0.396800
O             0.036243      0.247249      0.367961
O             0.453425      0.081327     -0.391424
Fe            0.148318      0.413724     -0.288627
Lu            0.350172     -0.416410      0.480646
Fe           -0.134630     -0.408219      0.262215
Fe           -0.352065      0.431614     -0.487864
H            -0.096205      0.412134     -0.477476
H            -0.394377     -0.408083      0.296788
H             0.084728     -0.418387      0.451066
H             0.413852      0.410404     -0.291524
O            -0.210415      0.431679      0.386546
O            -0.304474     -0.412344     -0.363671
O             0.176282     -0.410542     -0.403372
O             0.292023      0.391922      0.346573
O            -0.053941      0.435287     -0.385174
O            -0.438317     -0.396807      0.392144
O             0.052668     -0.416721      0.349762
O             0.447799      0.414749     -0.390321