data_nwchem_pspw

_audit_creation_date   Tue Aug 20 14:36:08 2024
_audit_creation_method    generated by PSPW module of NWChem


_cell_length_a            10.0667
_cell_length_b             9.1552
_cell_length_c             9.2041
_cell_angle_alpha         90.0000
_cell_angle_beta          90.0000
_cell_angle_gamma         90.0000

_symmetry_space_group_name_H-M     P1  

loop_
_atom_site_type_symbol
_atom_site_fract_x
_atom_site_fract_y
_atom_site_fract_z
Fe            0.146735     -0.250000      0.224756
Fe            0.353175     -0.083327     -0.025375
Fe           -0.146825     -0.083327     -0.224625
Fe           -0.353265     -0.250000      0.025244
H            -0.085221     -0.250000      0.049134
H            -0.414737     -0.083030     -0.201101
H             0.085263     -0.083030     -0.048899
H             0.414779     -0.250000      0.200866
O            -0.196748     -0.250000     -0.095276
O            -0.303195     -0.083277      0.154599
O             0.196805     -0.083277      0.095401
O             0.303252     -0.250000     -0.154724
O            -0.053396     -0.250000      0.148894
O            -0.446594     -0.082953     -0.101355
O             0.053406     -0.082954     -0.148645
O             0.446604     -0.250000      0.101106
Lu            0.146825      0.083327      0.224625
Fe            0.353265      0.250000     -0.025244
Fe           -0.146735      0.250000     -0.224756
Fe           -0.353175      0.083327      0.025375
H            -0.085263      0.083030      0.048899
H            -0.414779      0.250000     -0.200866
H             0.085221      0.250000     -0.049134
H             0.414737      0.083030      0.201101
O            -0.196805      0.083277     -0.095401
O            -0.303252      0.250000      0.154724
O             0.196748      0.250000      0.095276
O             0.303195      0.083277     -0.154599
O            -0.053406      0.082954      0.148645
O            -0.446604      0.250000     -0.101106
O             0.053396      0.250000     -0.148894
O             0.446594      0.082953      0.101355
Fe            0.146825      0.416673      0.224625
Fe            0.353175     -0.416673     -0.025375
Fe           -0.146825     -0.416673     -0.224625
Fe           -0.353175      0.416673      0.025375
H            -0.085263      0.416970      0.048899
H            -0.414737     -0.416970     -0.201101
H             0.085263     -0.416970     -0.048899
H             0.414737      0.416970      0.201101
O            -0.196805      0.416723     -0.095401
O            -0.303195     -0.416723      0.154599
O             0.196805     -0.416723      0.095401
O             0.303195      0.416723     -0.154599
O            -0.053406      0.417047      0.148645
O            -0.446594     -0.417047     -0.101355
O             0.053406     -0.417047     -0.148645
O             0.446594      0.417046      0.101355
Fe            0.146735     -0.250000     -0.275244
Fe            0.353175     -0.083327      0.474625
Fe           -0.146825     -0.083327      0.275375
Fe           -0.353265     -0.250000     -0.474756
H            -0.085221     -0.250000     -0.450866
H            -0.414737     -0.083030      0.298899
H             0.085263     -0.083030      0.451101
H             0.414779     -0.250000     -0.299134
O            -0.196748     -0.250000      0.404724
O            -0.303195     -0.083277     -0.345401
O             0.196805     -0.083277     -0.404599
O             0.303252     -0.250000      0.345276
O            -0.053396     -0.250000     -0.351106
O            -0.446594     -0.082953      0.398645
O             0.053406     -0.082954      0.351355
O             0.446604     -0.250000     -0.398894
Fe            0.146825      0.083327     -0.275375
Fe            0.353265      0.250000      0.474756
Fe           -0.146735      0.250000      0.275244
Fe           -0.353175      0.083327     -0.474625
H            -0.085263      0.083030     -0.451101
H            -0.414779      0.250000      0.299134
H             0.085221      0.250000      0.450866
H             0.414737      0.083030     -0.298899
O            -0.196805      0.083277      0.404599
O            -0.303252      0.250000     -0.345276
O             0.196748      0.250000     -0.404724
O             0.303195      0.083277      0.345401
O            -0.053406      0.082954     -0.351355
O            -0.446604      0.250000      0.398894
O             0.053396      0.250000      0.351106
O             0.446594      0.082953     -0.398645
Fe            0.146825      0.416673     -0.275375
Lu            0.353175     -0.416673      0.474625
Fe           -0.146825     -0.416673      0.275375
Fe           -0.353175      0.416673     -0.474625
H            -0.085263      0.416970     -0.451101
H            -0.414737     -0.416970      0.298899
H             0.085263     -0.416970      0.451101
H             0.414737      0.416970     -0.298899
O            -0.196805      0.416723      0.404599
O            -0.303195     -0.416723     -0.345401
O             0.196805     -0.416723     -0.404599
O             0.303195      0.416723      0.345401
O            -0.053406      0.417047     -0.351355
O            -0.446594     -0.417047      0.398645
O             0.053406     -0.417047      0.351355
O             0.446594      0.417046     -0.398645
data_nwchem_pspw

_audit_creation_date   Tue Aug 20 14:46:40 2024
_audit_creation_method    generated by PSPW module of NWChem


_cell_length_a            10.0667
_cell_length_b             9.1552
_cell_length_c             9.2041
_cell_angle_alpha         90.0000
_cell_angle_beta          90.0000
_cell_angle_gamma         90.0000

_symmetry_space_group_name_H-M     P1  

loop_
_atom_site_type_symbol
_atom_site_fract_x
_atom_site_fract_y
_atom_site_fract_z
Fe            0.146735     -0.250000      0.224756
Fe            0.353175     -0.083327     -0.025375
Fe           -0.146825     -0.083327     -0.224625
Fe           -0.353265     -0.250000      0.025244
H            -0.085221     -0.250000      0.049134
H            -0.414737     -0.083030     -0.201101
H             0.085263     -0.083030     -0.048899
H             0.414779     -0.250000      0.200866
O            -0.196748     -0.250000     -0.095276
O            -0.303195     -0.083277      0.154599
O             0.196805     -0.083277      0.095401
O             0.303252     -0.250000     -0.154724
O            -0.053396     -0.250000      0.148894
O            -0.446594     -0.082953     -0.101355
O             0.053406     -0.082954     -0.148645
O             0.446604     -0.250000      0.101106
Lu            0.146825      0.083327      0.224625
Fe            0.353265      0.250000     -0.025244
Fe           -0.146735      0.250000     -0.224756
Fe           -0.353175      0.083327      0.025375
H            -0.085263      0.083030      0.048899
H            -0.414779      0.250000     -0.200866
H             0.085221      0.250000     -0.049134
H             0.414737      0.083030      0.201101
O            -0.196805      0.083277     -0.095401
O            -0.303252      0.250000      0.154724
O             0.196748      0.250000      0.095276
O             0.303195      0.083277     -0.154599
O            -0.053406      0.082954      0.148645
O            -0.446604      0.250000     -0.101106
O             0.053396      0.250000     -0.148894
O             0.446594      0.082953      0.101355
Fe            0.146825      0.416673      0.224625
Fe            0.353175     -0.416673     -0.025375
Fe           -0.146825     -0.416673     -0.224625
Fe           -0.353175      0.416673      0.025375
H            -0.085263      0.416970      0.048899
H            -0.414737     -0.416970     -0.201101
H             0.085263     -0.416970     -0.048899
H             0.414737      0.416970      0.201101
O            -0.196805      0.416723     -0.095401
O            -0.303195     -0.416723      0.154599
O             0.196805     -0.416723      0.095401
O             0.303195      0.416723     -0.154599
O            -0.053406      0.417047      0.148645
O            -0.446594     -0.417047     -0.101355
O             0.053406     -0.417047     -0.148645
O             0.446594      0.417046      0.101355
Fe            0.146735     -0.250000     -0.275244
Fe            0.353175     -0.083327      0.474625
Fe           -0.146825     -0.083327      0.275375
Fe           -0.353265     -0.250000     -0.474756
H            -0.085221     -0.250000     -0.450866
H            -0.414737     -0.083030      0.298899
H             0.085263     -0.083030      0.451101
H             0.414779     -0.250000     -0.299134
O            -0.196748     -0.250000      0.404724
O            -0.303195     -0.083277     -0.345401
O             0.196805     -0.083277     -0.404599
O             0.303252     -0.250000      0.345276
O            -0.053396     -0.250000     -0.351106
O            -0.446594     -0.082953      0.398645
O             0.053406     -0.082954      0.351355
O             0.446604     -0.250000     -0.398894
Fe            0.146825      0.083327     -0.275375
Fe            0.353265      0.250000      0.474756
Fe           -0.146735      0.250000      0.275244
Fe           -0.353175      0.083327     -0.474625
H            -0.085263      0.083030     -0.451101
H            -0.414779      0.250000      0.299134
H             0.085221      0.250000      0.450866
H             0.414737      0.083030     -0.298899
O            -0.196805      0.083277      0.404599
O            -0.303252      0.250000     -0.345276
O             0.196748      0.250000     -0.404724
O             0.303195      0.083277      0.345401
O            -0.053406      0.082954     -0.351355
O            -0.446604      0.250000      0.398894
O             0.053396      0.250000      0.351106
O             0.446594      0.082953     -0.398645
Fe            0.146825      0.416673     -0.275375
Lu            0.353175     -0.416673      0.474625
Fe           -0.146825     -0.416673      0.275375
Fe           -0.353175      0.416673     -0.474625
H            -0.085263      0.416970     -0.451101
H            -0.414737     -0.416970      0.298899
H             0.085263     -0.416970      0.451101
H             0.414737      0.416970     -0.298899
O            -0.196805      0.416723      0.404599
O            -0.303195     -0.416723     -0.345401
O             0.196805     -0.416723     -0.404599
O             0.303195      0.416723      0.345401
O            -0.053406      0.417047     -0.351355
O            -0.446594     -0.417047      0.398645
O             0.053406     -0.417047      0.351355
O             0.446594      0.417046     -0.398645
data_nwchem_pspw

_audit_creation_date   Tue Aug 20 14:56:10 2024
_audit_creation_method    generated by PSPW module of NWChem


_cell_length_a            10.0667
_cell_length_b             9.1552
_cell_length_c             9.2041
_cell_angle_alpha         90.0000
_cell_angle_beta          90.0000
_cell_angle_gamma         90.0000

_symmetry_space_group_name_H-M     P1  

loop_
_atom_site_type_symbol
_atom_site_fract_x
_atom_site_fract_y
_atom_site_fract_z
Fe            0.146735     -0.250000      0.224756
Fe            0.353175     -0.083327     -0.025375
Fe           -0.146825     -0.083327     -0.224625
Fe           -0.353265     -0.250000      0.025244
H            -0.085221     -0.250000      0.049134
H            -0.414737     -0.083030     -0.201101
H             0.085263     -0.083030     -0.048899
H             0.414779     -0.250000      0.200866
O            -0.196748     -0.250000     -0.095276
O            -0.303195     -0.083277      0.154599
O             0.196805     -0.083277      0.095401
O             0.303252     -0.250000     -0.154724
O            -0.053396     -0.250000      0.148894
O            -0.446594     -0.082953     -0.101355
O             0.053406     -0.082954     -0.148645
O             0.446604     -0.250000      0.101106
Lu            0.146825      0.083327      0.224625
Fe            0.353265      0.250000     -0.025244
Fe           -0.146735      0.250000     -0.224756
Fe           -0.353175      0.083327      0.025375
H            -0.085263      0.083030      0.048899
H            -0.414779      0.250000     -0.200866
H             0.085221      0.250000     -0.049134
H             0.414737      0.083030      0.201101
O            -0.196805      0.083277     -0.095401
O            -0.303252      0.250000      0.154724
O             0.196748      0.250000      0.095276
O             0.303195      0.083277     -0.154599
O            -0.053406      0.082954      0.148645
O            -0.446604      0.250000     -0.101106
O             0.053396      0.250000     -0.148894
O             0.446594      0.082953      0.101355
Fe            0.146825      0.416673      0.224625
Fe            0.353175     -0.416673     -0.025375
Fe           -0.146825     -0.416673     -0.224625
Fe           -0.353175      0.416673      0.025375
H            -0.085263      0.416970      0.048899
H            -0.414737     -0.416970     -0.201101
H             0.085263     -0.416970     -0.048899
H             0.414737      0.416970      0.201101
O            -0.196805      0.416723     -0.095401
O            -0.303195     -0.416723      0.154599
O             0.196805     -0.416723      0.095401
O             0.303195      0.416723     -0.154599
O            -0.053406      0.417047      0.148645
O            -0.446594     -0.417047     -0.101355
O             0.053406     -0.417047     -0.148645
O             0.446594      0.417046      0.101355
Fe            0.146735     -0.250000     -0.275244
Fe            0.353175     -0.083327      0.474625
Fe           -0.146825     -0.083327      0.275375
Fe           -0.353265     -0.250000     -0.474756
H            -0.085221     -0.250000     -0.450866
H            -0.414737     -0.083030      0.298899
H             0.085263     -0.083030      0.451101
H             0.414779     -0.250000     -0.299134
O            -0.196748     -0.250000      0.404724
O            -0.303195     -0.083277     -0.345401
O             0.196805     -0.083277     -0.404599
O             0.303252     -0.250000      0.345276
O            -0.053396     -0.250000     -0.351106
O            -0.446594     -0.082953      0.398645
O             0.053406     -0.082954      0.351355
O             0.446604     -0.250000     -0.398894
Fe            0.146825      0.083327     -0.275375
Fe            0.353265      0.250000      0.474756
Fe           -0.146735      0.250000      0.275244
Fe           -0.353175      0.083327     -0.474625
H            -0.085263      0.083030     -0.451101
H            -0.414779      0.250000      0.299134
H             0.085221      0.250000      0.450866
H             0.414737      0.083030     -0.298899
O            -0.196805      0.083277      0.404599
O            -0.303252      0.250000     -0.345276
O             0.196748      0.250000     -0.404724
O             0.303195      0.083277      0.345401
O            -0.053406      0.082954     -0.351355
O            -0.446604      0.250000      0.398894
O             0.053396      0.250000      0.351106
O             0.446594      0.082953     -0.398645
Fe            0.146825      0.416673     -0.275375
Lu            0.353175     -0.416673      0.474625
Fe           -0.146825     -0.416673      0.275375
Fe           -0.353175      0.416673     -0.474625
H            -0.085263      0.416970     -0.451101
H            -0.414737     -0.416970      0.298899
H             0.085263     -0.416970      0.451101
H             0.414737      0.416970     -0.298899
O            -0.196805      0.416723      0.404599
O            -0.303195     -0.416723     -0.345401
O             0.196805     -0.416723     -0.404599
O             0.303195      0.416723      0.345401
O            -0.053406      0.417047     -0.351355
O            -0.446594     -0.417047      0.398645
O             0.053406     -0.417047      0.351355
O             0.446594      0.417046     -0.398645
data_nwchem_pspw

_audit_creation_date   Tue Aug 20 17:38:38 2024
_audit_creation_method    generated by PSPW module of NWChem


_cell_length_a            10.0667
_cell_length_b             9.1552
_cell_length_c             9.2041
_cell_angle_alpha         90.0000
_cell_angle_beta          90.0000
_cell_angle_gamma         90.0000

_symmetry_space_group_name_H-M     P1  

loop_
_atom_site_type_symbol
_atom_site_fract_x
_atom_site_fract_y
_atom_site_fract_z
Fe            0.146735     -0.250000      0.224756
Fe            0.353175     -0.083327     -0.025375
Fe           -0.146825     -0.083327     -0.224625
Fe           -0.353265     -0.250000      0.025244
H            -0.085221     -0.250000      0.049134
H            -0.414737     -0.083030     -0.201101
H             0.085263     -0.083030     -0.048899
H             0.414779     -0.250000      0.200866
O            -0.196748     -0.250000     -0.095276
O            -0.303195     -0.083277      0.154599
O             0.196805     -0.083277      0.095401
O             0.303252     -0.250000     -0.154724
O            -0.053396     -0.250000      0.148894
O            -0.446594     -0.082953     -0.101355
O             0.053406     -0.082954     -0.148645
O             0.446604     -0.250000      0.101106
Lu            0.146825      0.083327      0.224625
Fe            0.353265      0.250000     -0.025244
Fe           -0.146735      0.250000     -0.224756
Fe           -0.353175      0.083327      0.025375
H            -0.085263      0.083030      0.048899
H            -0.414779      0.250000     -0.200866
H             0.085221      0.250000     -0.049134
H             0.414737      0.083030      0.201101
O            -0.196805      0.083277     -0.095401
O            -0.303252      0.250000      0.154724
O             0.196748      0.250000      0.095276
O             0.303195      0.083277     -0.154599
O            -0.053406      0.082954      0.148645
O            -0.446604      0.250000     -0.101106
O             0.053396      0.250000     -0.148894
O             0.446594      0.082953      0.101355
Fe            0.146825      0.416673      0.224625
Fe            0.353175     -0.416673     -0.025375
Fe           -0.146825     -0.416673     -0.224625
Fe           -0.353175      0.416673      0.025375
H            -0.085263      0.416970      0.048899
H            -0.414737     -0.416970     -0.201101
H             0.085263     -0.416970     -0.048899
H             0.414737      0.416970      0.201101
O            -0.196805      0.416723     -0.095401
O            -0.303195     -0.416723      0.154599
O             0.196805     -0.416723      0.095401
O             0.303195      0.416723     -0.154599
O            -0.053406      0.417047      0.148645
O            -0.446594     -0.417047     -0.101355
O             0.053406     -0.417047     -0.148645
O             0.446594      0.417046      0.101355
Fe            0.146735     -0.250000     -0.275244
Fe            0.353175     -0.083327      0.474625
Fe           -0.146825     -0.083327      0.275375
Fe           -0.353265     -0.250000     -0.474756
H            -0.085221     -0.250000     -0.450866
H            -0.414737     -0.083030      0.298899
H             0.085263     -0.083030      0.451101
H             0.414779     -0.250000     -0.299134
O            -0.196748     -0.250000      0.404724
O            -0.303195     -0.083277     -0.345401
O             0.196805     -0.083277     -0.404599
O             0.303252     -0.250000      0.345276
O            -0.053396     -0.250000     -0.351106
O            -0.446594     -0.082953      0.398645
O             0.053406     -0.082954      0.351355
O             0.446604     -0.250000     -0.398894
Fe            0.146825      0.083327     -0.275375
Fe            0.353265      0.250000      0.474756
Fe           -0.146735      0.250000      0.275244
Fe           -0.353175      0.083327     -0.474625
H            -0.085263      0.083030     -0.451101
H            -0.414779      0.250000      0.299134
H             0.085221      0.250000      0.450866
H             0.414737      0.083030     -0.298899
O            -0.196805      0.083277      0.404599
O            -0.303252      0.250000     -0.345276
O             0.196748      0.250000     -0.404724
O             0.303195      0.083277      0.345401
O            -0.053406      0.082954     -0.351355
O            -0.446604      0.250000      0.398894
O             0.053396      0.250000      0.351106
O             0.446594      0.082953     -0.398645
Fe            0.146825      0.416673     -0.275375
Lu            0.353175     -0.416673      0.474625
Fe           -0.146825     -0.416673      0.275375
Fe           -0.353175      0.416673     -0.474625
H            -0.085263      0.416970     -0.451101
H            -0.414737     -0.416970      0.298899
H             0.085263     -0.416970      0.451101
H             0.414737      0.416970     -0.298899
O            -0.196805      0.416723      0.404599
O            -0.303195     -0.416723     -0.345401
O             0.196805     -0.416723     -0.404599
O             0.303195      0.416723      0.345401
O            -0.053406      0.417047     -0.351355
O            -0.446594     -0.417047      0.398645
O             0.053406     -0.417047      0.351355
O             0.446594      0.417046     -0.398645
data_nwchem_pspw

_audit_creation_date   Tue Aug 20 21:18:21 2024
_audit_creation_method    generated by PSPW module of NWChem


_cell_length_a            10.0667
_cell_length_b             9.1552
_cell_length_c             9.2041
_cell_angle_alpha         90.0000
_cell_angle_beta          90.0000
_cell_angle_gamma         90.0000

_symmetry_space_group_name_H-M     P1  

loop_
_atom_site_type_symbol
_atom_site_fract_x
_atom_site_fract_y
_atom_site_fract_z
Fe            0.146735     -0.250000      0.224756
Fe            0.353175     -0.083327     -0.025375
Fe           -0.146825     -0.083327     -0.224625
Fe           -0.353265     -0.250000      0.025244
H            -0.085221     -0.250000      0.049134
H            -0.414737     -0.083030     -0.201101
H             0.085263     -0.083030     -0.048899
H             0.414779     -0.250000      0.200866
O            -0.196748     -0.250000     -0.095276
O            -0.303195     -0.083277      0.154599
O             0.196805     -0.083277      0.095401
O             0.303252     -0.250000     -0.154724
O            -0.053396     -0.250000      0.148894
O            -0.446594     -0.082953     -0.101355
O             0.053406     -0.082954     -0.148645
O             0.446604     -0.250000      0.101106
Lu            0.146825      0.083327      0.224625
Fe            0.353265      0.250000     -0.025244
Fe           -0.146735      0.250000     -0.224756
Fe           -0.353175      0.083327      0.025375
H            -0.085263      0.083030      0.048899
H            -0.414779      0.250000     -0.200866
H             0.085221      0.250000     -0.049134
H             0.414737      0.083030      0.201101
O            -0.196805      0.083277     -0.095401
O            -0.303252      0.250000      0.154724
O             0.196748      0.250000      0.095276
O             0.303195      0.083277     -0.154599
O            -0.053406      0.082954      0.148645
O            -0.446604      0.250000     -0.101106
O             0.053396      0.250000     -0.148894
O             0.446594      0.082953      0.101355
Fe            0.146825      0.416673      0.224625
Fe            0.353175     -0.416673     -0.025375
Fe           -0.146825     -0.416673     -0.224625
Fe           -0.353175      0.416673      0.025375
H            -0.085263      0.416970      0.048899
H            -0.414737     -0.416970     -0.201101
H             0.085263     -0.416970     -0.048899
H             0.414737      0.416970      0.201101
O            -0.196805      0.416723     -0.095401
O            -0.303195     -0.416723      0.154599
O             0.196805     -0.416723      0.095401
O             0.303195      0.416723     -0.154599
O            -0.053406      0.417047      0.148645
O            -0.446594     -0.417047     -0.101355
O             0.053406     -0.417047     -0.148645
O             0.446594      0.417046      0.101355
Fe            0.146735     -0.250000     -0.275244
Fe            0.353175     -0.083327      0.474625
Fe           -0.146825     -0.083327      0.275375
Fe           -0.353265     -0.250000     -0.474756
H            -0.085221     -0.250000     -0.450866
H            -0.414737     -0.083030      0.298899
H             0.085263     -0.083030      0.451101
H             0.414779     -0.250000     -0.299134
O            -0.196748     -0.250000      0.404724
O            -0.303195     -0.083277     -0.345401
O             0.196805     -0.083277     -0.404599
O             0.303252     -0.250000      0.345276
O            -0.053396     -0.250000     -0.351106
O            -0.446594     -0.082953      0.398645
O             0.053406     -0.082954      0.351355
O             0.446604     -0.250000     -0.398894
Fe            0.146825      0.083327     -0.275375
Fe            0.353265      0.250000      0.474756
Fe           -0.146735      0.250000      0.275244
Fe           -0.353175      0.083327     -0.474625
H            -0.085263      0.083030     -0.451101
H            -0.414779      0.250000      0.299134
H             0.085221      0.250000      0.450866
H             0.414737      0.083030     -0.298899
O            -0.196805      0.083277      0.404599
O            -0.303252      0.250000     -0.345276
O             0.196748      0.250000     -0.404724
O             0.303195      0.083277      0.345401
O            -0.053406      0.082954     -0.351355
O            -0.446604      0.250000      0.398894
O             0.053396      0.250000      0.351106
O             0.446594      0.082953     -0.398645
Fe            0.146825      0.416673     -0.275375
Lu            0.353175     -0.416673      0.474625
Fe           -0.146825     -0.416673      0.275375
Fe           -0.353175      0.416673     -0.474625
H            -0.085263      0.416970     -0.451101
H            -0.414737     -0.416970      0.298899
H             0.085263     -0.416970      0.451101
H             0.414737      0.416970     -0.298899
O            -0.196805      0.416723      0.404599
O            -0.303195     -0.416723     -0.345401
O             0.196805     -0.416723     -0.404599
O             0.303195      0.416723      0.345401
O            -0.053406      0.417047     -0.351355
O            -0.446594     -0.417047      0.398645
O             0.053406     -0.417047      0.351355
O             0.446594      0.417046     -0.398645
data_nwchem_pspw

_audit_creation_date   Tue Aug 20 23:32:28 2024
_audit_creation_method    generated by PSPW module of NWChem


_cell_length_a            10.0667
_cell_length_b             9.1552
_cell_length_c             9.2041
_cell_angle_alpha         90.0000
_cell_angle_beta          90.0000
_cell_angle_gamma         90.0000

_symmetry_space_group_name_H-M     P1  

loop_
_atom_site_type_symbol
_atom_site_fract_x
_atom_site_fract_y
_atom_site_fract_z
Fe            0.146735     -0.250000      0.224756
Fe            0.353175     -0.083327     -0.025375
Fe           -0.146825     -0.083327     -0.224625
Fe           -0.353265     -0.250000      0.025244
H            -0.085221     -0.250000      0.049134
H            -0.414737     -0.083030     -0.201101
H             0.085263     -0.083030     -0.048899
H             0.414779     -0.250000      0.200866
O            -0.196748     -0.250000     -0.095276
O            -0.303195     -0.083277      0.154599
O             0.196805     -0.083277      0.095401
O             0.303252     -0.250000     -0.154724
O            -0.053396     -0.250000      0.148894
O            -0.446594     -0.082953     -0.101355
O             0.053406     -0.082954     -0.148645
O             0.446604     -0.250000      0.101106
Lu            0.146825      0.083327      0.224625
Fe            0.353265      0.250000     -0.025244
Fe           -0.146735      0.250000     -0.224756
Fe           -0.353175      0.083327      0.025375
H            -0.085263      0.083030      0.048899
H            -0.414779      0.250000     -0.200866
H             0.085221      0.250000     -0.049134
H             0.414737      0.083030      0.201101
O            -0.196805      0.083277     -0.095401
O            -0.303252      0.250000      0.154724
O             0.196748      0.250000      0.095276
O             0.303195      0.083277     -0.154599
O            -0.053406      0.082954      0.148645
O            -0.446604      0.250000     -0.101106
O             0.053396      0.250000     -0.148894
O             0.446594      0.082953      0.101355
Fe            0.146825      0.416673      0.224625
Fe            0.353175     -0.416673     -0.025375
Fe           -0.146825     -0.416673     -0.224625
Fe           -0.353175      0.416673      0.025375
H            -0.085263      0.416970      0.048899
H            -0.414737     -0.416970     -0.201101
H             0.085263     -0.416970     -0.048899
H             0.414737      0.416970      0.201101
O            -0.196805      0.416723     -0.095401
O            -0.303195     -0.416723      0.154599
O             0.196805     -0.416723      0.095401
O             0.303195      0.416723     -0.154599
O            -0.053406      0.417047      0.148645
O            -0.446594     -0.417047     -0.101355
O             0.053406     -0.417047     -0.148645
O             0.446594      0.417046      0.101355
Fe            0.146735     -0.250000     -0.275244
Fe            0.353175     -0.083327      0.474625
Fe           -0.146825     -0.083327      0.275375
Fe           -0.353265     -0.250000     -0.474756
H            -0.085221     -0.250000     -0.450866
H            -0.414737     -0.083030      0.298899
H             0.085263     -0.083030      0.451101
H             0.414779     -0.250000     -0.299134
O            -0.196748     -0.250000      0.404724
O            -0.303195     -0.083277     -0.345401
O             0.196805     -0.083277     -0.404599
O             0.303252     -0.250000      0.345276
O            -0.053396     -0.250000     -0.351106
O            -0.446594     -0.082953      0.398645
O             0.053406     -0.082954      0.351355
O             0.446604     -0.250000     -0.398894
Fe            0.146825      0.083327     -0.275375
Fe            0.353265      0.250000      0.474756
Fe           -0.146735      0.250000      0.275244
Fe           -0.353175      0.083327     -0.474625
H            -0.085263      0.083030     -0.451101
H            -0.414779      0.250000      0.299134
H             0.085221      0.250000      0.450866
H             0.414737      0.083030     -0.298899
O            -0.196805      0.083277      0.404599
O            -0.303252      0.250000     -0.345276
O             0.196748      0.250000     -0.404724
O             0.303195      0.083277      0.345401
O            -0.053406      0.082954     -0.351355
O            -0.446604      0.250000      0.398894
O             0.053396      0.250000      0.351106
O             0.446594      0.082953     -0.398645
Fe            0.146825      0.416673     -0.275375
Lu            0.353175     -0.416673      0.474625
Fe           -0.146825     -0.416673      0.275375
Fe           -0.353175      0.416673     -0.474625
H            -0.085263      0.416970     -0.451101
H            -0.414737     -0.416970      0.298899
H             0.085263     -0.416970      0.451101
H             0.414737      0.416970     -0.298899
O            -0.196805      0.416723      0.404599
O            -0.303195     -0.416723     -0.345401
O             0.196805     -0.416723     -0.404599
O             0.303195      0.416723      0.345401
O            -0.053406      0.417047     -0.351355
O            -0.446594     -0.417047      0.398645
O             0.053406     -0.417047      0.351355
O             0.446594      0.417046     -0.398645
data_nwchem_pspw

_audit_creation_date   Wed Aug 21 01:32:27 2024
_audit_creation_method    generated by PSPW module of NWChem


_cell_length_a            10.0667
_cell_length_b             9.1552
_cell_length_c             9.2041
_cell_angle_alpha         90.0000
_cell_angle_beta          90.0000
_cell_angle_gamma         90.0000

_symmetry_space_group_name_H-M     P1  

loop_
_atom_site_type_symbol
_atom_site_fract_x
_atom_site_fract_y
_atom_site_fract_z
Fe            0.146735     -0.250000      0.224756
Fe            0.353175     -0.083327     -0.025375
Fe           -0.146825     -0.083327     -0.224625
Fe           -0.353265     -0.250000      0.025244
H            -0.085221     -0.250000      0.049134
H            -0.414737     -0.083030     -0.201101
H             0.085263     -0.083030     -0.048899
H             0.414779     -0.250000      0.200866
O            -0.196748     -0.250000     -0.095276
O            -0.303195     -0.083277      0.154599
O             0.196805     -0.083277      0.095401
O             0.303252     -0.250000     -0.154724
O            -0.053396     -0.250000      0.148894
O            -0.446594     -0.082953     -0.101355
O             0.053406     -0.082954     -0.148645
O             0.446604     -0.250000      0.101106
Lu            0.146825      0.083327      0.224625
Fe            0.353265      0.250000     -0.025244
Fe           -0.146735      0.250000     -0.224756
Fe           -0.353175      0.083327      0.025375
H            -0.085263      0.083030      0.048899
H            -0.414779      0.250000     -0.200866
H             0.085221      0.250000     -0.049134
H             0.414737      0.083030      0.201101
O            -0.196805      0.083277     -0.095401
O            -0.303252      0.250000      0.154724
O             0.196748      0.250000      0.095276
O             0.303195      0.083277     -0.154599
O            -0.053406      0.082954      0.148645
O            -0.446604      0.250000     -0.101106
O             0.053396      0.250000     -0.148894
O             0.446594      0.082953      0.101355
Fe            0.146825      0.416673      0.224625
Fe            0.353175     -0.416673     -0.025375
Fe           -0.146825     -0.416673     -0.224625
Fe           -0.353175      0.416673      0.025375
H            -0.085263      0.416970      0.048899
H            -0.414737     -0.416970     -0.201101
H             0.085263     -0.416970     -0.048899
H             0.414737      0.416970      0.201101
O            -0.196805      0.416723     -0.095401
O            -0.303195     -0.416723      0.154599
O             0.196805     -0.416723      0.095401
O             0.303195      0.416723     -0.154599
O            -0.053406      0.417047      0.148645
O            -0.446594     -0.417047     -0.101355
O             0.053406     -0.417047     -0.148645
O             0.446594      0.417046      0.101355
Fe            0.146735     -0.250000     -0.275244
Fe            0.353175     -0.083327      0.474625
Fe           -0.146825     -0.083327      0.275375
Fe           -0.353265     -0.250000     -0.474756
H            -0.085221     -0.250000     -0.450866
H            -0.414737     -0.083030      0.298899
H             0.085263     -0.083030      0.451101
H             0.414779     -0.250000     -0.299134
O            -0.196748     -0.250000      0.404724
O            -0.303195     -0.083277     -0.345401
O             0.196805     -0.083277     -0.404599
O             0.303252     -0.250000      0.345276
O            -0.053396     -0.250000     -0.351106
O            -0.446594     -0.082953      0.398645
O             0.053406     -0.082954      0.351355
O             0.446604     -0.250000     -0.398894
Fe            0.146825      0.083327     -0.275375
Fe            0.353265      0.250000      0.474756
Fe           -0.146735      0.250000      0.275244
Fe           -0.353175      0.083327     -0.474625
H            -0.085263      0.083030     -0.451101
H            -0.414779      0.250000      0.299134
H             0.085221      0.250000      0.450866
H             0.414737      0.083030     -0.298899
O            -0.196805      0.083277      0.404599
O            -0.303252      0.250000     -0.345276
O             0.196748      0.250000     -0.404724
O             0.303195      0.083277      0.345401
O            -0.053406      0.082954     -0.351355
O            -0.446604      0.250000      0.398894
O             0.053396      0.250000      0.351106
O             0.446594      0.082953     -0.398645
Fe            0.146825      0.416673     -0.275375
Lu            0.353175     -0.416673      0.474625
Fe           -0.146825     -0.416673      0.275375
Fe           -0.353175      0.416673     -0.474625
H            -0.085263      0.416970     -0.451101
H            -0.414737     -0.416970      0.298899
H             0.085263     -0.416970      0.451101
H             0.414737      0.416970     -0.298899
O            -0.196805      0.416723      0.404599
O            -0.303195     -0.416723     -0.345401
O             0.196805     -0.416723     -0.404599
O             0.303195      0.416723      0.345401
O            -0.053406      0.417047     -0.351355
O            -0.446594     -0.417047      0.398645
O             0.053406     -0.417047      0.351355
O             0.446594      0.417046     -0.398645
data_nwchem_pspw

_audit_creation_date   Wed Aug 21 06:18:35 2024
_audit_creation_method    generated by PSPW module of NWChem


_cell_length_a            10.0667
_cell_length_b             9.1552
_cell_length_c             9.2041
_cell_angle_alpha         90.0000
_cell_angle_beta          90.0000
_cell_angle_gamma         90.0000

_symmetry_space_group_name_H-M     P1  

loop_
_atom_site_type_symbol
_atom_site_fract_x
_atom_site_fract_y
_atom_site_fract_z
Fe            0.138540     -0.256293      0.227603
Fe            0.352509     -0.086657     -0.023241
Fe           -0.160143     -0.085997     -0.227545
Fe           -0.350119     -0.246444      0.022312
H            -0.091982     -0.255951      0.049400
H            -0.424943     -0.104419     -0.206440
H             0.084475     -0.083403     -0.040301
H             0.398592     -0.243232      0.207394
O            -0.197067     -0.247500     -0.093324
O            -0.309969     -0.084034      0.158599
O             0.182817     -0.093488      0.088187
O             0.299116     -0.256248     -0.163111
O            -0.056742     -0.246389      0.147208
O            -0.444363     -0.097949     -0.103436
O             0.041695     -0.077538     -0.136711
O             0.442123     -0.250458      0.112691
Lu            0.150151      0.083531      0.221861
Fe            0.351890      0.253066     -0.022388
Fe           -0.160158      0.252853     -0.228392
Fe           -0.356991      0.083596      0.023834
H            -0.095447      0.083681      0.056625
H            -0.419679      0.268751     -0.203904
H             0.080802      0.252016     -0.041398
H             0.421305      0.079405      0.215701
O            -0.199352      0.083243     -0.096108
O            -0.310233      0.252363      0.160632
O             0.181827      0.258904      0.088035
O             0.298031      0.083551     -0.139838
O            -0.052096      0.083461      0.151411
O            -0.445527      0.264212     -0.101888
O             0.042029      0.243307     -0.139275
O             0.450566      0.084050      0.117161
Fe            0.138305      0.422136      0.227242
Fe            0.356827     -0.415967     -0.028850
Fe           -0.155915     -0.416745     -0.229240
Fe           -0.349855      0.414003      0.022876
H            -0.090370      0.424264      0.048891
H            -0.416467     -0.414621     -0.195206
H             0.084177     -0.417352     -0.051804
H             0.397994      0.411565      0.209139
O            -0.196414      0.414352     -0.093396
O            -0.292791     -0.417309      0.161669
O             0.217293     -0.417305      0.127422
O             0.298215      0.422865     -0.164220
O            -0.054860      0.413967      0.146552
O            -0.450679     -0.416582     -0.094723
O             0.047536     -0.416843     -0.145859
O             0.441540      0.417042      0.113731
Fe            0.143461     -0.245471     -0.276385
Fe            0.361861     -0.079194      0.485783
Fe           -0.149827     -0.084390      0.270121
Fe           -0.344483     -0.247047     -0.477903
H            -0.070263     -0.259756     -0.444701
H            -0.408775     -0.078013      0.303853
H             0.088529     -0.063161      0.447129
H             0.427504     -0.244881     -0.293251
O            -0.189099     -0.254588      0.409940
O            -0.306635     -0.084026     -0.344274
O             0.200057     -0.070724     -0.387449
O             0.288046     -0.221013      0.343633
O            -0.065284     -0.252956     -0.340102
O            -0.429921     -0.089876      0.406498
O             0.041365     -0.088499      0.359157
O             0.461861     -0.241426     -0.390993
Fe            0.130362      0.083875     -0.267348
Fe            0.362857      0.243651      0.487239
Fe           -0.149232      0.252071      0.269398
Fe           -0.348486      0.083116     -0.474330
H            -0.099908      0.082355     -0.448933
H            -0.409096      0.244801      0.303943
H             0.089897      0.233060      0.448702
H             0.417256      0.077082     -0.298486
O            -0.187049      0.082948      0.416637
O            -0.306584      0.251898     -0.343927
O             0.202159      0.236463     -0.387615
O             0.343622      0.079352      0.352087
O            -0.066546      0.082201     -0.346876
O            -0.430047      0.254608      0.407179
O             0.042943      0.254112      0.359628
O             0.459129      0.084441     -0.392297
Fe            0.144321      0.410900     -0.277902
Lu            0.363266     -0.416878      0.448248
Fe           -0.140255     -0.416576      0.290331
Fe           -0.344339      0.415458     -0.477995
H            -0.070821      0.425839     -0.447136
H            -0.378481     -0.417928      0.288470
H             0.085061     -0.417375     -0.478249
H             0.437142      0.417396     -0.292705
O            -0.188623      0.421942      0.411349
O            -0.319791     -0.415223     -0.331153
O             0.155173     -0.417312     -0.397868
O             0.286227      0.388960      0.343141
O            -0.065734      0.420169     -0.341540
O            -0.425479     -0.418635      0.387045
O             0.052281     -0.416385      0.349665
O             0.464881      0.411805     -0.392240
data_nwchem_pspw

_audit_creation_date   Wed Aug 21 10:18:19 2024
_audit_creation_method    generated by PSPW module of NWChem


_cell_length_a            10.0667
_cell_length_b             9.1552
_cell_length_c             9.2041
_cell_angle_alpha         90.0000
_cell_angle_beta          90.0000
_cell_angle_gamma         90.0000

_symmetry_space_group_name_H-M     P1  

loop_
_atom_site_type_symbol
_atom_site_fract_x
_atom_site_fract_y
_atom_site_fract_z
Fe            0.143000     -0.252950      0.228041
Fe            0.353024     -0.086865     -0.026404
Fe           -0.141678     -0.087798     -0.232954
Fe           -0.352409     -0.247878      0.024685
H            -0.074857     -0.256025      0.047267
H            -0.403760     -0.103542     -0.208792
H             0.092475     -0.065711     -0.052455
H             0.416572     -0.239619      0.199043
O            -0.192385     -0.242526     -0.105311
O            -0.300451     -0.083097      0.159323
O             0.197249     -0.087254      0.090711
O             0.306754     -0.246480     -0.156493
O            -0.051801     -0.245986      0.147891
O            -0.442727     -0.092521     -0.112105
O             0.043909     -0.072309     -0.145978
O             0.434093     -0.255846      0.095748
Lu            0.140457      0.083397      0.225841
Fe            0.354510      0.252729     -0.024335
Fe           -0.142469      0.253691     -0.231580
Fe           -0.351972      0.082821      0.024488
H            -0.089189      0.082699      0.040883
H            -0.404258      0.272195     -0.202191
H             0.098907      0.239576     -0.050419
H             0.418849      0.081440      0.183707
O            -0.192532      0.083873     -0.101782
O            -0.297886      0.247955      0.156088
O             0.197601      0.256478      0.088542
O             0.299838      0.082526     -0.161869
O            -0.066545      0.080301      0.139601
O            -0.446652      0.257725     -0.107109
O             0.045023      0.243104     -0.142367
O             0.447531      0.079926      0.083149
Fe            0.145304      0.422612      0.229053
Fe            0.351177     -0.417063     -0.022918
Fe           -0.136828     -0.417080     -0.216407
Fe           -0.355364      0.414781      0.027143
H            -0.075947      0.420780      0.052142
H            -0.391251     -0.421291     -0.188670
H             0.098233     -0.418343     -0.049496
H             0.416623      0.404804      0.200278
O            -0.195534      0.410075     -0.104945
O            -0.302501     -0.417046      0.146519
O             0.202006     -0.417809      0.094862
O             0.305389      0.411227     -0.155341
O            -0.052059      0.412183      0.152577
O            -0.433907     -0.413524     -0.094687
O             0.040613     -0.417680     -0.136085
O             0.436064      0.423459      0.097254
Fe            0.142687     -0.241940     -0.270626
Fe            0.362793     -0.092158      0.481186
Fe           -0.141443     -0.083489      0.275539
Fe           -0.358617     -0.251536     -0.478729
H            -0.092543     -0.260414     -0.456708
H            -0.400252     -0.091565      0.302980
H             0.074403     -0.100812      0.464021
H             0.424041     -0.226817     -0.285603
O            -0.206994     -0.255871      0.384845
O            -0.299848     -0.088046     -0.359900
O             0.206485     -0.084703     -0.393586
O             0.307952     -0.241954      0.344959
O            -0.066287     -0.253756     -0.356312
O            -0.433207     -0.084098      0.403074
O             0.056504     -0.094890      0.362792
O             0.448178     -0.245484     -0.387120
Fe            0.143886      0.086035     -0.281765
Fe            0.365663      0.257725      0.473684
Fe           -0.139844      0.250406      0.280547
Fe           -0.349422      0.082849     -0.473985
H            -0.106561      0.085656     -0.458487
H            -0.405114      0.257490      0.303094
H             0.086383      0.258624      0.463951
H             0.457928      0.102361     -0.308907
O            -0.179488      0.083032      0.404729
O            -0.298583      0.254624     -0.362021
O             0.211917      0.253117     -0.397288
O             0.341044      0.082633      0.349133
O            -0.059645      0.083394     -0.363329
O            -0.444179      0.253473      0.400053
O             0.055716      0.265786      0.364758
O             0.455015      0.082465     -0.412551
Fe            0.143078      0.404097     -0.273952
Lu            0.346058     -0.416946      0.483520
Fe           -0.148208     -0.419317      0.276696
Fe           -0.358155      0.417508     -0.479514
H            -0.090624      0.422319     -0.455939
H            -0.425730     -0.416527      0.292286
H             0.087083     -0.418165      0.466159
H             0.422046      0.400395     -0.286506
O            -0.213262      0.421511      0.386601
O            -0.290061     -0.417714     -0.372549
O             0.168598     -0.414230     -0.415560
O             0.305855      0.411217      0.344864
O            -0.067208      0.420209     -0.353236
O            -0.459974     -0.408808      0.398856
O             0.063202     -0.413252      0.351449
O             0.447571      0.417183     -0.387882
data_nwchem_pspw

_audit_creation_date   Wed Aug 21 15:15:42 2024
_audit_creation_method    generated by PSPW module of NWChem


_cell_length_a            10.0667
_cell_length_b             9.1552
_cell_length_c             9.2041
_cell_angle_alpha         90.0000
_cell_angle_beta          90.0000
_cell_angle_gamma         90.0000

_symmetry_space_group_name_H-M     P1  

loop_
_atom_site_type_symbol
_atom_site_fract_x
_atom_site_fract_y
_atom_site_fract_z
Fe            0.136623     -0.246841      0.232586
Fe            0.347055     -0.093422     -0.032139
Fe           -0.150549     -0.091142     -0.234256
Fe           -0.361295     -0.236552      0.028170
H            -0.084949     -0.259591      0.049606
H            -0.444529     -0.079567     -0.193760
H             0.087970     -0.079649     -0.051777
H             0.416160     -0.248758      0.205910
O            -0.202346     -0.235456     -0.097008
O            -0.309685     -0.076517      0.152656
O             0.194174     -0.102438      0.092833
O             0.318636     -0.256105     -0.162009
O            -0.053056     -0.248458      0.149116
O            -0.458988     -0.071535     -0.090598
O             0.061025     -0.089232     -0.151154
O             0.439283     -0.234200      0.105313
Lu            0.154253      0.083153      0.215512
Fe            0.346307      0.260693     -0.020220
Fe           -0.153471      0.256192     -0.229793
Fe           -0.352117      0.085562      0.023698
H            -0.099412      0.080109      0.049449
H            -0.429385      0.236788     -0.201412
H             0.087778      0.230306     -0.058750
H             0.420011      0.083351      0.211371
O            -0.205110      0.083363     -0.108315
O            -0.309904      0.244361      0.153704
O             0.182379      0.266511      0.088027
O             0.296843      0.083313     -0.140643
O            -0.069926      0.073355      0.147796
O            -0.461661      0.240917     -0.101203
O             0.060976      0.252982     -0.154917
O             0.422419      0.083994      0.104523
Fe            0.140765      0.414490      0.231582
Fe            0.352796     -0.418927     -0.014102
Fe           -0.161320     -0.414021     -0.227503
Fe           -0.369994      0.403909      0.023595
H            -0.092774      0.434165      0.052478
H            -0.404346     -0.434744     -0.190931
H             0.108640     -0.413577     -0.058610
H             0.421248      0.395904      0.214156
O            -0.202242      0.404505     -0.089177
O            -0.302445     -0.413860      0.155922
O             0.205840     -0.420205      0.093427
O             0.324866      0.429145     -0.164919
O            -0.059866      0.421720      0.152245
O            -0.421347     -0.410069     -0.087730
O             0.063324     -0.419240     -0.151873
O             0.441150      0.405633      0.109921
Fe            0.150533     -0.256354     -0.275761
Fe            0.352486     -0.085316      0.494392
Fe           -0.149960     -0.085914      0.280578
Fe           -0.348770     -0.245620     -0.478007
H            -0.090351     -0.254364     -0.453223
H            -0.415633     -0.105499      0.296329
H             0.077899     -0.089492      0.455840
H             0.421599     -0.261344     -0.288905
O            -0.187716     -0.263216      0.411780
O            -0.293953     -0.070946     -0.349187
O             0.190979     -0.089681     -0.404438
O             0.323910     -0.222927      0.342013
O            -0.053610     -0.243729     -0.353678
O            -0.440175     -0.090912      0.397148
O             0.039569     -0.089133      0.358774
O             0.452303     -0.239270     -0.389461
Fe            0.150111      0.090550     -0.280217
Fe            0.354239      0.250916      0.487504
Fe           -0.150902      0.254869      0.288179
Fe           -0.354130      0.086689     -0.466250
H            -0.090221      0.076695     -0.453500
H            -0.403279      0.250851      0.294093
H             0.070934      0.268847      0.454385
H             0.416831      0.097846     -0.274229
O            -0.192910      0.081913      0.414046
O            -0.295318      0.242373     -0.350662
O             0.191959      0.262259     -0.408018
O             0.316791      0.085997      0.365087
O            -0.061090      0.081009     -0.352548
O            -0.437228      0.243152      0.394387
O             0.039544      0.260080      0.354258
O             0.430793      0.085493     -0.377478
Fe            0.154315      0.418641     -0.276609
Lu            0.365715     -0.418783      0.457853
Fe           -0.150198     -0.418289      0.280803
Fe           -0.350339      0.410546     -0.474181
H            -0.092616      0.418144     -0.454414
H            -0.360045     -0.412195      0.263952
H             0.104758     -0.407755      0.472091
H             0.420029      0.403287     -0.283257
O            -0.184531      0.425812      0.413433
O            -0.309426     -0.416543     -0.338208
O             0.173333     -0.414986     -0.413585
O             0.317231      0.385244      0.340365
O            -0.057842      0.408959     -0.353240
O            -0.431121     -0.420879      0.388803
O             0.075865     -0.411619      0.360110
O             0.451274      0.407263     -0.393998
data_nwchem_pspw

_audit_creation_date   Wed Aug 21 21:20:34 2024
_audit_creation_method    generated by PSPW module of NWChem


_cell_length_a            10.0667
_cell_length_b             9.1552
_cell_length_c             9.2041
_cell_angle_alpha         90.0000
_cell_angle_beta          90.0000
_cell_angle_gamma         90.0000

_symmetry_space_group_name_H-M     P1  

loop_
_atom_site_type_symbol
_atom_site_fract_x
_atom_site_fract_y
_atom_site_fract_z
Fe            0.151784     -0.242438      0.208716
Fe            0.346603     -0.087462     -0.030123
Fe           -0.151461     -0.082795     -0.236319
Fe           -0.341135     -0.241880      0.028570
H            -0.091569     -0.247834      0.054216
H            -0.414005     -0.076534     -0.200568
H             0.073865     -0.063915     -0.051597
H             0.445368     -0.217309      0.206883
O            -0.193252     -0.262727     -0.094938
O            -0.292282     -0.074283      0.148317
O             0.187464     -0.083988      0.077210
O             0.292750     -0.253254     -0.139745
O            -0.048769     -0.248275      0.147160
O            -0.446236     -0.065437     -0.102467
O             0.046447     -0.081756     -0.151516
O             0.455882     -0.234745      0.102583
Lu            0.144483      0.083133      0.231128
Fe            0.348874      0.247959     -0.018218
Fe           -0.154775      0.238138     -0.227147
Fe           -0.345951      0.086020      0.021985
H            -0.097049      0.069552      0.068228
H            -0.420541      0.228410     -0.201038
H             0.062700      0.250794     -0.047758
H             0.431617      0.095019      0.206741
O            -0.194012      0.083974     -0.099234
O            -0.286276      0.249352      0.142139
O             0.188712      0.262318      0.078237
O             0.300832      0.074593     -0.166756
O            -0.065244      0.078207      0.166652
O            -0.447243      0.245802     -0.104561
O             0.047372      0.247653     -0.149883
O             0.447798      0.079688      0.104604
Fe            0.151767      0.416889      0.204753
Fe            0.357600     -0.416846     -0.025875
Fe           -0.160863     -0.419363     -0.230404
Fe           -0.348850      0.410611      0.017710
H            -0.095902      0.408117      0.054504
H            -0.435576     -0.417350     -0.196823
H             0.088637     -0.413817     -0.059226
H             0.435235      0.394176      0.213944
O            -0.188956      0.422321     -0.096159
O            -0.296294     -0.422721      0.135221
O             0.211288     -0.411011      0.100992
O             0.304551      0.412336     -0.148693
O            -0.046799      0.416010      0.146386
O            -0.445147     -0.402776     -0.094886
O             0.052123     -0.412240     -0.159739
O             0.454203      0.409890      0.109807
Fe            0.143685     -0.251172     -0.257289
Fe            0.372747     -0.075919      0.484003
Fe           -0.159113     -0.090738      0.289158
Fe           -0.354257     -0.251664     -0.490269
H            -0.082494     -0.256957     -0.448268
H            -0.407568     -0.074435      0.292324
H             0.080512     -0.105214      0.467384
H             0.404658     -0.252382     -0.293140
O            -0.208548     -0.259242      0.383701
O            -0.287446     -0.082252     -0.373643
O             0.210901     -0.090724     -0.387030
O             0.296914     -0.231455      0.343339
O            -0.056962     -0.250359     -0.348646
O            -0.441354     -0.077829      0.390738
O             0.038532     -0.092184      0.373414
O             0.450183     -0.242336     -0.386650
Fe            0.139339      0.084265     -0.293893
Fe            0.374082      0.245383      0.477774
Fe           -0.154952      0.251596      0.286873
Fe           -0.354954      0.086814     -0.457989
H            -0.097846      0.084783     -0.451265
H            -0.402874      0.243072      0.280890
H             0.069445      0.256736      0.477702
H             0.391935      0.072049     -0.299481
O            -0.193647      0.081152      0.405885
O            -0.283948      0.251048     -0.372077
O             0.215556      0.247676     -0.383467
O             0.320500      0.094621      0.358797
O            -0.048947      0.077986     -0.358148
O            -0.438445      0.251166      0.378933
O             0.040782      0.249258      0.378437
O             0.449926      0.085039     -0.388218
Fe            0.142895      0.418651     -0.256023
Lu            0.341933     -0.414688      0.481971
Fe           -0.136305     -0.419420      0.258533
Fe           -0.348607      0.420490     -0.484439
H            -0.080475      0.417432     -0.445490
H            -0.412812     -0.413346      0.286316
H             0.079343     -0.418492      0.449956
H             0.417740      0.371123     -0.291701
O            -0.198550      0.427254      0.388295
O            -0.309336     -0.416150     -0.354899
O             0.171595     -0.417530     -0.394630
O             0.309297      0.392013      0.346307
O            -0.051801      0.409288     -0.345639
O            -0.446266     -0.409325      0.383108
O             0.065120     -0.415185      0.343575
O             0.449339      0.399617     -0.385549
data_nwchem_pspw

_audit_creation_date   Thu Aug 22 01:56:27 2024
_audit_creation_method    generated by PSPW module of NWChem


_cell_length_a            10.0667
_cell_length_b             9.1552
_cell_length_c             9.2041
_cell_angle_alpha         90.0000
_cell_angle_beta          90.0000
_cell_angle_gamma         90.0000

_symmetry_space_group_name_H-M     P1  

loop_
_atom_site_type_symbol
_atom_site_fract_x
_atom_site_fract_y
_atom_site_fract_z
Fe            0.147124     -0.251720      0.235251
Fe            0.349088     -0.102084     -0.035097
Fe           -0.155653     -0.076194     -0.222632
Fe           -0.359492     -0.236900      0.037081
H            -0.047019     -0.262321      0.046324
H            -0.418766     -0.116790     -0.183878
H             0.077168     -0.093662     -0.049844
H             0.421182     -0.248894      0.215536
O            -0.207781     -0.256717     -0.104319
O            -0.306851     -0.073915      0.170836
O             0.202061     -0.107612      0.088751
O             0.286464     -0.249210     -0.154990
O            -0.042980     -0.258438      0.149170
O            -0.453518     -0.087936     -0.091487
O             0.045555     -0.084876     -0.147572
O             0.454000     -0.259598      0.116632
Lu            0.151567      0.081103      0.202631
Fe            0.343533      0.264409     -0.030605
Fe           -0.148036      0.252889     -0.225770
Fe           -0.366449      0.086761      0.032314
H            -0.114366      0.082828      0.053602
H            -0.406200      0.230638     -0.185954
H             0.056698      0.276670     -0.048051
H             0.431398      0.079306      0.200498
O            -0.213112      0.085181     -0.089805
O            -0.308711      0.240865      0.163504
O             0.203587      0.285367      0.099446
O             0.304303      0.088442     -0.153959
O            -0.065184      0.085197      0.142593
O            -0.458898      0.241171     -0.099601
O             0.033427      0.247744     -0.146757
O             0.432756      0.068030      0.096423
Fe            0.141598      0.423380      0.232396
Fe            0.343856     -0.416743     -0.025307
Fe           -0.138917     -0.414806     -0.224159
Fe           -0.356721      0.412535      0.027940
H            -0.064053      0.423651      0.048917
H            -0.437757     -0.398231     -0.197890
H             0.086274     -0.425068     -0.034014
H             0.426865      0.408389      0.198423
O            -0.211688      0.423443     -0.109006
O            -0.314400     -0.422813      0.157173
O             0.196796     -0.421315      0.108694
O             0.292559      0.414364     -0.163417
O            -0.045184      0.421365      0.152146
O            -0.467686     -0.417396     -0.101002
O             0.048171     -0.422224     -0.130566
O             0.449124      0.415795      0.096236
Fe            0.141467     -0.251545     -0.269021
Fe            0.357985     -0.088571      0.493424
Fe           -0.153239     -0.084273      0.285273
Fe           -0.347308     -0.255418     -0.467938
H            -0.083680     -0.263577     -0.455693
H            -0.418387     -0.066502      0.304972
H             0.095629     -0.086739      0.444220
H             0.439738     -0.253763     -0.290236
O            -0.193935     -0.243039      0.398323
O            -0.310929     -0.086143     -0.335706
O             0.195292     -0.076472     -0.408136
O             0.306260     -0.237213      0.352580
O            -0.048929     -0.260116     -0.356097
O            -0.439458     -0.071548      0.407168
O             0.063411     -0.073862      0.345452
O             0.458645     -0.247638     -0.392393
Fe            0.145222      0.087272     -0.290893
Fe            0.363873      0.243935      0.478516
Fe           -0.146490      0.247896      0.278338
Fe           -0.341314      0.090014     -0.466048
H            -0.092193      0.081795     -0.441854
H            -0.414498      0.255733      0.298175
H             0.080151      0.243529      0.440448
H             0.405101      0.100754     -0.293022
O            -0.182283      0.083542      0.419951
O            -0.305433      0.256733     -0.337057
O             0.200759      0.254186     -0.412496
O             0.311452      0.094567      0.362441
O            -0.045260      0.094459     -0.348274
O            -0.435135      0.254573      0.400742
O             0.053093      0.251992      0.340999
O             0.448691      0.079875     -0.390558
Fe            0.144916      0.417440     -0.279976
Lu            0.363359     -0.418389      0.464056
Fe           -0.158249     -0.422810      0.275129
Fe           -0.345780      0.425620     -0.466476
H            -0.085472      0.432336     -0.456552
H            -0.404020     -0.408560      0.299441
H             0.095616     -0.412212      0.464891
H             0.411802      0.391220     -0.300380
O            -0.193904      0.399847      0.401313
O            -0.309201     -0.418835     -0.341347
O             0.198064     -0.410927     -0.403820
O             0.309951      0.395645      0.336551
O            -0.049195      0.418580     -0.359475
O            -0.424388     -0.414465      0.400952
O             0.058463     -0.413627      0.365895
O             0.449085      0.399717     -0.398004
data_nwchem_pspw

_audit_creation_date   Thu Aug 22 06:11:31 2024
_audit_creation_method    generated by PSPW module of NWChem


_cell_length_a            10.0667
_cell_length_b             9.1552
_cell_length_c             9.2041
_cell_angle_alpha         90.0000
_cell_angle_beta          90.0000
_cell_angle_gamma         90.0000

_symmetry_space_group_name_H-M     P1  

loop_
_atom_site_type_symbol
_atom_site_fract_x
_atom_site_fract_y
_atom_site_fract_z
Fe            0.143681     -0.245737      0.221367
Fe            0.352907     -0.089248     -0.017484
Fe           -0.143824     -0.083874     -0.226649
Fe           -0.344906     -0.250934      0.007207
H            -0.085832     -0.248915      0.035230
H            -0.423416     -0.091729     -0.200206
H             0.090223     -0.085000     -0.047878
H             0.418745     -0.246267      0.202853
O            -0.184441     -0.255397     -0.105069
O            -0.311758     -0.079791      0.149807
O             0.191201     -0.084306      0.095582
O             0.307789     -0.244663     -0.147329
O            -0.058571     -0.254713      0.137249
O            -0.452495     -0.074977     -0.098346
O             0.052485     -0.076827     -0.144239
O             0.439861     -0.248588      0.100607
Lu            0.140448      0.085325      0.245860
Fe            0.345623      0.251553     -0.003798
Fe           -0.142508      0.251416     -0.221974
Fe           -0.354265      0.080246      0.027844
H            -0.103297      0.089973      0.040335
H            -0.406218      0.238051     -0.192695
H             0.079337      0.231946     -0.048372
H             0.426208      0.108436      0.220249
O            -0.184653      0.083288     -0.092541
O            -0.302175      0.246444      0.145500
O             0.189914      0.262423      0.112631
O             0.308049      0.084399     -0.150644
O            -0.063747      0.081938      0.141955
O            -0.448579      0.252908     -0.097520
O             0.048428      0.246119     -0.146041
O             0.441431      0.096601      0.118705
Fe            0.142041      0.415440      0.235849
Fe            0.352665     -0.422071     -0.028586
Fe           -0.144779     -0.419256     -0.238042
Fe           -0.346111      0.408859      0.016313
H            -0.075946      0.419732      0.036684
H            -0.412682     -0.423416     -0.208488
H             0.081186     -0.431357     -0.038286
H             0.422485      0.406518      0.206270
O            -0.183680      0.422010     -0.091481
O            -0.302753     -0.413260      0.160962
O             0.212701     -0.423468      0.099886
O             0.306320      0.402340     -0.150181
O            -0.046093      0.418988      0.139429
O            -0.433298     -0.413690     -0.106246
O             0.066550     -0.424201     -0.142561
O             0.450385      0.422444      0.105686
Fe            0.139365     -0.254670     -0.274773
Fe            0.363414     -0.078274      0.487807
Fe           -0.143747     -0.089322      0.258634
Fe           -0.355256     -0.248986     -0.489099
H            -0.084652     -0.271434     -0.456798
H            -0.441844     -0.060379      0.290622
H             0.064093     -0.105235      0.476746
H             0.393638     -0.246319     -0.307552
O            -0.195648     -0.235265      0.400495
O            -0.311938     -0.077446     -0.332716
O             0.201790     -0.076780     -0.408707
O             0.300983     -0.233141      0.343245
O            -0.055068     -0.251931     -0.357468
O            -0.457600     -0.086284      0.391334
O             0.041401     -0.082580      0.377621
O             0.451454     -0.252516     -0.391019
Fe            0.151140      0.084367     -0.269128
Fe            0.367526      0.249894      0.477319
Fe           -0.139549      0.253369      0.263363
Fe           -0.345710      0.082073     -0.486669
H            -0.067299      0.088409     -0.460838
H            -0.437403      0.244954      0.287644
H             0.065513      0.248479      0.477672
H             0.427344      0.114865     -0.297541
O            -0.202547      0.083110      0.386842
O            -0.308574      0.260517     -0.343651
O             0.215787      0.250344     -0.404045
O             0.318807      0.086762      0.356015
O            -0.042215      0.086229     -0.359742
O            -0.441819      0.245441      0.392853
O             0.045029      0.266246      0.377093
O             0.452119      0.107051     -0.399848
Fe            0.146188      0.415347     -0.275470
Lu            0.341297     -0.414521      0.462753
Fe           -0.140734     -0.423376      0.267893
Fe           -0.359072      0.412111     -0.472755
H            -0.056858      0.416770     -0.459218
H            -0.417484     -0.428650      0.294077
H             0.081034     -0.412713      0.455587
H             0.425392      0.379224     -0.300215
O            -0.204098      0.413546      0.395436
O            -0.297849     -0.420091     -0.351221
O             0.180563     -0.416157     -0.404106
O             0.318579      0.392874      0.344867
O            -0.044436      0.421896     -0.355374
O            -0.457733     -0.426022      0.393355
O             0.052827     -0.410369      0.353260
O             0.447503      0.411525     -0.398048
data_nwchem_pspw

_audit_creation_date   Thu Aug 22 10:12:06 2024
_audit_creation_method    generated by PSPW module of NWChem


_cell_length_a            10.0667
_cell_length_b             9.1552
_cell_length_c             9.2041
_cell_angle_alpha         90.0000
_cell_angle_beta          90.0000
_cell_angle_gamma         90.0000

_symmetry_space_group_name_H-M     P1  

loop_
_atom_site_type_symbol
_atom_site_fract_x
_atom_site_fract_y
_atom_site_fract_z
Fe            0.137000     -0.253824      0.221766
Fe            0.364586     -0.081932     -0.027996
Fe           -0.142477     -0.082359     -0.228406
Fe           -0.348686     -0.247582      0.022834
H            -0.114505     -0.272023      0.064327
H            -0.412245     -0.085149     -0.202775
H             0.084843     -0.096931     -0.043320
H             0.407483     -0.241093      0.196107
O            -0.201243     -0.251552     -0.094741
O            -0.302568     -0.079070      0.154895
O             0.190292     -0.102157      0.080227
O             0.305563     -0.260491     -0.170499
O            -0.065195     -0.251906      0.150719
O            -0.433232     -0.084882     -0.101819
O             0.048496     -0.077368     -0.140339
O             0.443689     -0.243156      0.098430
Lu            0.147692      0.080959      0.206783
Fe            0.362407      0.262719     -0.014159
Fe           -0.145799      0.244110     -0.216832
Fe           -0.359843      0.090061      0.038849
H            -0.082061      0.066254      0.028371
H            -0.413960      0.246411     -0.205460
H             0.091092      0.273646     -0.038197
H             0.420987      0.070839      0.212190
O            -0.200625      0.077457     -0.090451
O            -0.302167      0.248436      0.164772
O             0.207514      0.272198      0.105935
O             0.293283      0.094030     -0.138749
O            -0.047194      0.074976      0.126428
O            -0.439407      0.251763     -0.099951
O             0.053684      0.243200     -0.131211
O             0.451852      0.073930      0.108902
Fe            0.141287      0.429124      0.231844
Fe            0.369472     -0.415593     -0.034076
Fe           -0.158608     -0.415023     -0.227218
Fe           -0.350049      0.420705      0.029404
H            -0.071002      0.420943      0.060858
H            -0.394284     -0.410722     -0.197796
H             0.100842     -0.413651     -0.047554
H             0.410240      0.408382      0.208657
O            -0.200528      0.411411     -0.093834
O            -0.294670     -0.418785      0.166722
O             0.213596     -0.420624      0.082241
O             0.293467      0.418188     -0.154574
O            -0.053063      0.416387      0.163079
O            -0.429510     -0.419905     -0.096700
O             0.061909     -0.413977     -0.143607
O             0.446141      0.419898      0.109399
Fe            0.130393     -0.248667     -0.280483
Fe            0.359594     -0.083362      0.470787
Fe           -0.139369     -0.081459      0.268479
Fe           -0.355949     -0.246749     -0.474831
H            -0.095874     -0.244750     -0.452596
H            -0.390011     -0.075177      0.296267
H             0.075327     -0.080764      0.450944
H             0.413080     -0.253797     -0.304493
O            -0.193705     -0.234274      0.414852
O            -0.298047     -0.084143     -0.347713
O             0.182701     -0.087137     -0.411478
O             0.289586     -0.245341      0.336501
O            -0.064781     -0.254606     -0.350256
O            -0.440297     -0.092932      0.389532
O             0.045284     -0.099670      0.348912
O             0.447993     -0.245507     -0.402455
Fe            0.135942      0.083624     -0.272049
Fe            0.363029      0.241461      0.478192
Fe           -0.138646      0.247837      0.285676
Fe           -0.354168      0.084283     -0.497571
H            -0.078254      0.088591     -0.452465
H            -0.400668      0.265293      0.290328
H             0.094747      0.271095      0.458066
H             0.410017      0.073359     -0.272763
O            -0.193528      0.078843      0.402514
O            -0.304601      0.250015     -0.336855
O             0.179836      0.244462     -0.416524
O             0.332322      0.079919      0.347361
O            -0.059120      0.084922     -0.349619
O            -0.447207      0.255754      0.385273
O             0.050711      0.259535      0.356520
O             0.435942      0.070220     -0.378600
Fe            0.141050      0.417835     -0.276835
Lu            0.349792     -0.417454      0.472787
Fe           -0.140584     -0.415611      0.302306
Fe           -0.351489      0.416590     -0.475468
H            -0.086300      0.452732     -0.439827
H            -0.397281     -0.417759      0.309060
H             0.097195     -0.412985      0.464515
H             0.424004      0.391854     -0.291641
O            -0.195324      0.399732      0.429057
O            -0.316279     -0.429461     -0.339348
O             0.173853     -0.416247     -0.401944
O             0.295650      0.398101      0.345935
O            -0.068139      0.426397     -0.341232
O            -0.434383     -0.414114      0.410299
O             0.052676     -0.416944      0.367953
O             0.437846      0.410995     -0.392123
data_nwchem_pspw

_audit_creation_date   Thu Aug 22 16:08:23 2024
_audit_creation_method    generated by PSPW module of NWChem


_cell_length_a            10.0667
_cell_length_b             9.1552
_cell_length_c             9.2041
_cell_angle_alpha         90.0000
_cell_angle_beta          90.0000
_cell_angle_gamma         90.0000

_symmetry_space_group_name_H-M     P1  

loop_
_atom_site_type_symbol
_atom_site_fract_x
_atom_site_fract_y
_atom_site_fract_z
Fe            0.134659     -0.245282      0.226978
Fe            0.347565     -0.088932     -0.028894
Fe           -0.146505     -0.079185     -0.237768
Fe           -0.351631     -0.248459      0.037717
H            -0.091441     -0.236081      0.058707
H            -0.419256     -0.087501     -0.206428
H             0.076314     -0.050420     -0.053088
H             0.384485     -0.236546      0.194430
O            -0.188273     -0.247638     -0.095905
O            -0.307979     -0.081473      0.152443
O             0.181490     -0.077496      0.093113
O             0.298559     -0.259323     -0.154220
O            -0.060892     -0.250603      0.157448
O            -0.443431     -0.089222     -0.104206
O             0.056702     -0.077619     -0.152690
O             0.433099     -0.253315      0.102066
Lu            0.152165      0.086589      0.247903
Fe            0.336348      0.251910     -0.024412
Fe           -0.145903      0.247164     -0.232146
Fe           -0.363909      0.084784      0.016160
H            -0.099171      0.076656      0.052722
H            -0.433893      0.247991     -0.206831
H             0.082128      0.255561     -0.052288
H             0.414008      0.066433      0.190773
O            -0.202417      0.085361     -0.103848
O            -0.301136      0.234786      0.149053
O             0.178114      0.243561      0.085109
O             0.317754      0.076057     -0.160756
O            -0.056017      0.073650      0.147128
O            -0.458172      0.245570     -0.106053
O             0.050909      0.242044     -0.152358
O             0.427218      0.070354      0.086958
Fe            0.140631      0.411517      0.223824
Fe            0.350090     -0.415937     -0.026281
Fe           -0.145424     -0.423156     -0.220803
Fe           -0.356260      0.415001      0.024787
H            -0.070848      0.403121      0.050835
H            -0.428782     -0.383393     -0.190770
H             0.089534     -0.423264     -0.043907
H             0.408700      0.393182      0.194611
O            -0.192205      0.420357     -0.095470
O            -0.303913     -0.425930      0.156211
O             0.193622     -0.425540      0.098538
O             0.300548      0.423475     -0.150014
O            -0.057140      0.420232      0.153486
O            -0.447372     -0.413951     -0.093882
O             0.053914     -0.402807     -0.140257
O             0.439695      0.416075      0.097801
Fe            0.140726     -0.249513     -0.261210
Fe            0.356234     -0.081289      0.480028
Fe           -0.145829     -0.076979      0.269782
Fe           -0.352991     -0.242511     -0.466513
H            -0.079991     -0.257953     -0.448869
H            -0.411126     -0.082867      0.293258
H             0.079495     -0.100689      0.463769
H             0.420766     -0.245443     -0.302912
O            -0.204896     -0.247443      0.410379
O            -0.312557     -0.076764     -0.344319
O             0.208623     -0.090080     -0.389672
O             0.297181     -0.228764      0.337241
O            -0.051855     -0.256577     -0.349107
O            -0.435041     -0.078649      0.397344
O             0.044369     -0.096519      0.364941
O             0.448887     -0.267025     -0.400493
Fe            0.156715      0.083184     -0.266092
Fe            0.365086      0.245808      0.476727
Fe           -0.141785      0.245329      0.264800
Fe           -0.352467      0.086333     -0.484083
H            -0.100084      0.090287     -0.445177
H            -0.404399      0.258879      0.294321
H             0.082765      0.258887      0.452780
H             0.443318      0.070540     -0.291540
O            -0.205519      0.082167      0.385036
O            -0.301800      0.243361     -0.353654
O             0.200616      0.249170     -0.404223
O             0.330804      0.082349      0.351839
O            -0.056511      0.072977     -0.351326
O            -0.434519      0.256405      0.394834
O             0.039518      0.268595      0.358730
O             0.454590      0.071995     -0.395137
Fe            0.142223      0.422496     -0.274453
Lu            0.365677     -0.417226      0.456751
Fe           -0.148033     -0.418395      0.289103
Fe           -0.355996      0.418445     -0.487187
H            -0.095829      0.419085     -0.458163
H            -0.402981     -0.390761      0.283671
H             0.074221     -0.393516      0.448135
H             0.411684      0.426551     -0.297683
O            -0.198110      0.411084      0.398213
O            -0.301385     -0.424448     -0.360217
O             0.197171     -0.414868     -0.395211
O             0.293285      0.394364      0.347175
O            -0.057609      0.431936     -0.360483
O            -0.436304     -0.405133      0.383814
O             0.061498     -0.411602      0.345385
O             0.448034      0.415967     -0.395038
data_nwchem_pspw

_audit_creation_date   Fri Aug 23 04:34:39 2024
_audit_creation_method    generated by PSPW module of NWChem


_cell_length_a            10.0667
_cell_length_b             9.1552
_cell_length_c             9.2041
_cell_angle_alpha         90.0000
_cell_angle_beta          90.0000
_cell_angle_gamma         90.0000

_symmetry_space_group_name_H-M     P1  

loop_
_atom_site_type_symbol
_atom_site_fract_x
_atom_site_fract_y
_atom_site_fract_z
Fe            0.143802     -0.257987      0.219234
Fe            0.365190     -0.093153     -0.024494
Fe           -0.147403     -0.081230     -0.230223
Fe           -0.345045     -0.245825      0.033637
H            -0.090901     -0.242890      0.060790
H            -0.413924     -0.094953     -0.210399
H             0.092415     -0.073008     -0.051260
H             0.417896     -0.258833      0.200889
O            -0.189670     -0.245818     -0.095783
O            -0.292645     -0.072531      0.154757
O             0.214518     -0.087094      0.089868
O             0.302018     -0.248305     -0.142120
O            -0.065768     -0.253580      0.161865
O            -0.437101     -0.091959     -0.107994
O             0.057872     -0.070546     -0.151163
O             0.460941     -0.239640      0.107220
Lu            0.142481      0.084720      0.207715
Fe            0.348074      0.255207     -0.036653
Fe           -0.154337      0.246459     -0.230988
Fe           -0.363513      0.088270      0.024671
H            -0.119607      0.066141      0.059880
H            -0.439653      0.256023     -0.197647
H             0.065084      0.243272     -0.044041
H             0.434574      0.074045      0.206547
O            -0.208612      0.081037     -0.105908
O            -0.301275      0.248213      0.152162
O             0.202171      0.269679      0.089984
O             0.292711      0.079722     -0.146957
O            -0.064910      0.071344      0.146124
O            -0.468044      0.249298     -0.099504
O             0.046530      0.247284     -0.143645
O             0.455750      0.078815      0.104888
Fe            0.149991      0.421113      0.231805
Fe            0.362946     -0.418094     -0.013392
Fe           -0.158365     -0.421900     -0.225783
Fe           -0.352406      0.408874      0.022846
H            -0.097027      0.401638      0.049280
H            -0.416886     -0.407140     -0.207376
H             0.052617     -0.429550     -0.033178
H             0.439107      0.413706      0.198753
O            -0.204969      0.410524     -0.099109
O            -0.294465     -0.414455      0.151897
O             0.206411     -0.420284      0.103405
O             0.302100      0.431465     -0.164793
O            -0.057306      0.414167      0.146130
O            -0.445844     -0.413327     -0.105992
O             0.038539     -0.426343     -0.136214
O             0.464494      0.426161      0.098634
Fe            0.146250     -0.238678     -0.260172
Fe            0.370896     -0.079752      0.484188
Fe           -0.157099     -0.086552      0.299048
Fe           -0.341444     -0.254455     -0.485931
H            -0.055130     -0.232850     -0.443332
H            -0.412333     -0.088107      0.296415
H             0.103366     -0.087568      0.449750
H             0.411379     -0.246368     -0.290432
O            -0.190465     -0.260524      0.397739
O            -0.295102     -0.086140     -0.355147
O             0.213661     -0.083026     -0.414959
O             0.320755     -0.234894      0.332113
O            -0.057072     -0.249359     -0.340439
O            -0.434298     -0.082810      0.398400
O             0.048687     -0.093778      0.361619
O             0.444704     -0.230727     -0.385891
Fe            0.153517      0.081778     -0.283640
Fe            0.361837      0.239791      0.458030
Fe           -0.149413      0.249125      0.277074
Fe           -0.343353      0.087085     -0.471787
H            -0.092922      0.085106     -0.452600
H            -0.398029      0.243813      0.292908
H             0.085779      0.259161      0.443887
H             0.397136      0.077646     -0.309602
O            -0.189178      0.090784      0.410865
O            -0.302159      0.252028     -0.349251
O             0.202272      0.262198     -0.410397
O             0.309493      0.070106      0.353237
O            -0.057098      0.079534     -0.354609
O            -0.431518      0.248574      0.393881
O             0.036468      0.253326      0.352765
O             0.450063      0.092465     -0.396659
Fe            0.136814      0.413908     -0.260961
Lu            0.344040     -0.414937      0.483745
Fe           -0.143204     -0.423663      0.276156
Fe           -0.359280      0.414659     -0.483831
H            -0.078314      0.421499     -0.454167
H            -0.406427     -0.408104      0.293760
H             0.074909     -0.421185      0.453626
H             0.459114      0.417129     -0.278223
O            -0.188400      0.430496      0.401741
O            -0.317876     -0.419311     -0.340901
O             0.176802     -0.414549     -0.386116
O             0.305229      0.412112      0.340292
O            -0.060334      0.424865     -0.350271
O            -0.452181     -0.416691      0.387621
O             0.061812     -0.421200      0.347477
O             0.452668      0.421583     -0.383175
data_nwchem_pspw

_audit_creation_date   Fri Aug 23 11:23:05 2024
_audit_creation_method    generated by PSPW module of NWChem


_cell_length_a            10.0667
_cell_length_b             9.1552
_cell_length_c             9.2041
_cell_angle_alpha         90.0000
_cell_angle_beta          90.0000
_cell_angle_gamma         90.0000

_symmetry_space_group_name_H-M     P1  

loop_
_atom_site_type_symbol
_atom_site_fract_x
_atom_site_fract_y
_atom_site_fract_z
Fe            0.150012     -0.249135      0.217666
Fe            0.337572     -0.088276     -0.022859
Fe           -0.146908     -0.082802     -0.220154
Fe           -0.358161     -0.240094      0.022104
H            -0.062331     -0.227996      0.045293
H            -0.422252     -0.067302     -0.194286
H             0.081988     -0.094274     -0.055393
H             0.412224     -0.215720      0.193293
O            -0.198187     -0.246364     -0.093812
O            -0.294269     -0.084373      0.141357
O             0.165608     -0.080579      0.083360
O             0.304340     -0.259574     -0.162629
O            -0.047261     -0.222191      0.149151
O            -0.449530     -0.068695     -0.094230
O             0.056335     -0.090892     -0.159238
O             0.444369     -0.236401      0.095031
Lu            0.157232      0.075750      0.236967
Fe            0.331628      0.252296     -0.020081
Fe           -0.148875      0.251706     -0.207042
Fe           -0.362411      0.093803      0.028718
H            -0.056146      0.065471      0.058591
H            -0.427336      0.237591     -0.183945
H             0.074415      0.249888     -0.042408
H             0.411831      0.066725      0.208448
O            -0.192833      0.085711     -0.066382
O            -0.309008      0.259446      0.154519
O             0.172459      0.253813      0.093261
O             0.289930      0.077597     -0.139768
O            -0.046634      0.090110      0.157874
O            -0.470069      0.248721     -0.088525
O             0.042991      0.241619     -0.146097
O             0.427826      0.086138      0.106888
Fe            0.143343      0.412457      0.233124
Fe            0.341608     -0.415792     -0.027752
Fe           -0.154541     -0.416061     -0.233441
Fe           -0.360350      0.420952      0.028086
H            -0.092244      0.426114      0.053317
H            -0.433319     -0.383011     -0.202848
H             0.072732     -0.423713     -0.043739
H             0.421725      0.428172      0.188984
O            -0.208704      0.419313     -0.093114
O            -0.297864     -0.416231      0.140335
O             0.204661     -0.421479      0.108967
O             0.287715      0.417764     -0.154358
O            -0.048927      0.419367      0.149184
O            -0.455923     -0.406946     -0.102202
O             0.041309     -0.417818     -0.141814
O             0.445432      0.420809      0.088082
Fe            0.150086     -0.252783     -0.282573
Fe            0.360788     -0.084376      0.485940
Fe           -0.142159     -0.082167      0.287817
Fe           -0.343788     -0.246723     -0.484675
H            -0.071684     -0.285090     -0.457993
H            -0.406891     -0.101743      0.298507
H             0.078601     -0.077032      0.470794
H             0.418348     -0.225760     -0.301570
O            -0.205311     -0.263827      0.379304
O            -0.294167     -0.086521     -0.346571
O             0.213486     -0.092429     -0.403613
O             0.307675     -0.230128      0.328838
O            -0.043677     -0.255114     -0.359570
O            -0.447413     -0.098865      0.395014
O             0.039779     -0.072058      0.376438
O             0.449758     -0.236908     -0.398140
Fe            0.148429      0.081891     -0.273644
Fe            0.361390      0.231587      0.495809
Fe           -0.150356      0.245589      0.281707
Fe           -0.348384      0.095769     -0.465988
H            -0.071292      0.085148     -0.454326
H            -0.421718      0.232707      0.306655
H             0.109108      0.266496      0.454229
H             0.393636      0.066238     -0.293962
O            -0.199681      0.078920      0.408449
O            -0.306967      0.270154     -0.324908
O             0.208143      0.250989     -0.384783
O             0.319128      0.066823      0.366431
O            -0.041987      0.082169     -0.356027
O            -0.445230      0.244941      0.409356
O             0.052457      0.260786      0.370037
O             0.445528      0.069504     -0.384819
Fe            0.136985      0.417738     -0.270577
Lu            0.363417     -0.418811      0.439093
Fe           -0.133673     -0.416030      0.250060
Fe           -0.350134      0.426669     -0.467248
H            -0.085464      0.410938     -0.453841
H            -0.386070     -0.421845      0.290905
H             0.097476     -0.427596      0.457677
H             0.400131      0.403642     -0.296279
O            -0.199559      0.405961      0.407132
O            -0.314251     -0.397704     -0.345361
O             0.177865     -0.433533     -0.425989
O             0.302700      0.385044      0.340697
O            -0.056487      0.421635     -0.353432
O            -0.433403     -0.419819      0.383535
O             0.069676     -0.401231      0.345523
O             0.440430      0.410116     -0.395212
data_nwchem_pspw

_audit_creation_date   Fri Aug 23 18:58:18 2024
_audit_creation_method    generated by PSPW module of NWChem


_cell_length_a            10.0667
_cell_length_b             9.1552
_cell_length_c             9.2041
_cell_angle_alpha         90.0000
_cell_angle_beta          90.0000
_cell_angle_gamma         90.0000

_symmetry_space_group_name_H-M     P1  

loop_
_atom_site_type_symbol
_atom_site_fract_x
_atom_site_fract_y
_atom_site_fract_z
Fe            0.141795     -0.247711      0.228865
Fe            0.360463     -0.094539     -0.023383
Fe           -0.142790     -0.086108     -0.245684
Fe           -0.345111     -0.243949      0.020255
H            -0.089364     -0.255128      0.043800
H            -0.416923     -0.083982     -0.197933
H             0.065277     -0.094566     -0.051472
H             0.410953     -0.246882      0.202936
O            -0.199094     -0.253639     -0.103838
O            -0.314922     -0.096194      0.165779
O             0.192869     -0.103352      0.089739
O             0.295800     -0.248644     -0.156797
O            -0.067934     -0.264265      0.145530
O            -0.442347     -0.089222     -0.095461
O             0.049291     -0.064966     -0.151162
O             0.453453     -0.252800      0.109893
Lu            0.145271      0.092065      0.218792
Fe            0.357129      0.250727     -0.017604
Fe           -0.145772      0.251151     -0.232417
Fe           -0.353097      0.076290      0.021966
H            -0.098080      0.067102      0.052472
H            -0.399077      0.252457     -0.197527
H             0.084686      0.242557     -0.046839
H             0.395227      0.063914      0.202881
O            -0.202909      0.083194     -0.107467
O            -0.285622      0.245228      0.145374
O             0.202573      0.273899      0.100805
O             0.292886      0.077908     -0.142772
O            -0.065076      0.071677      0.151941
O            -0.449872      0.248126     -0.104793
O             0.053448      0.247349     -0.146708
O             0.442715      0.073370      0.110494
Fe            0.146786      0.432715      0.226547
Fe            0.356489     -0.417876     -0.026165
Fe           -0.156460     -0.418420     -0.228324
Fe           -0.349947      0.408971      0.021916
H            -0.085314      0.416013      0.039995
H            -0.438832     -0.420935     -0.205879
H             0.058180     -0.426372     -0.045583
H             0.429337      0.411892      0.202905
O            -0.192149      0.408750     -0.107237
O            -0.304244     -0.421492      0.144460
O             0.209718     -0.409801      0.098711
O             0.292006      0.424325     -0.141850
O            -0.045510      0.426897      0.136320
O            -0.445633     -0.410583     -0.100189
O             0.045723     -0.416136     -0.148738
O             0.461687      0.425988      0.104299
Fe            0.142095     -0.237367     -0.272070
Fe            0.361935     -0.080078      0.477733
Fe           -0.150307     -0.089034      0.279546
Fe           -0.343145     -0.240407     -0.475330
H            -0.068399     -0.237264     -0.456255
H            -0.433674     -0.113317      0.294273
H             0.094132     -0.112489      0.452542
H             0.414673     -0.221948     -0.294483
O            -0.187074     -0.258910      0.405586
O            -0.312256     -0.085757     -0.345428
O             0.202911     -0.079673     -0.398095
O             0.291490     -0.246856      0.366888
O            -0.058906     -0.250467     -0.352571
O            -0.446594     -0.091951      0.395429
O             0.055235     -0.103497      0.353974
O             0.452584     -0.244851     -0.387752
Fe            0.156352      0.087473     -0.291137
Fe            0.359100      0.253470      0.477156
Fe           -0.149914      0.247172      0.280840
Fe           -0.352639      0.086842     -0.490446
H            -0.085177      0.076301     -0.459650
H            -0.415465      0.262099      0.294676
H             0.081339      0.269912      0.458965
H             0.430605      0.086879     -0.306411
O            -0.191608      0.072908      0.413193
O            -0.310174      0.248017     -0.345858
O             0.192171      0.257659     -0.411815
O             0.312180      0.079964      0.352605
O            -0.049246      0.075460     -0.361626
O            -0.445875      0.254299      0.396016
O             0.055835      0.259130      0.357076
O             0.441450      0.066628     -0.406989
Fe            0.142190      0.409382     -0.266279
Lu            0.344674     -0.417548      0.493317
Fe           -0.148320     -0.427903      0.258851
Fe           -0.343939      0.419841     -0.473806
H            -0.060289      0.385349     -0.452127
H            -0.424612     -0.398934      0.300035
H             0.089963     -0.438684      0.448167
H             0.433136      0.365633     -0.290318
O            -0.194654      0.419676      0.402163
O            -0.302137     -0.413117     -0.348944
O             0.174843     -0.426275     -0.394049
O             0.311474      0.406623      0.337297
O            -0.061743      0.411733     -0.352854
O            -0.450638     -0.395454      0.403613
O             0.057712     -0.418314      0.347829
O             0.449604      0.394702     -0.387443
data_nwchem_pspw

_audit_creation_date   Sat Aug 24 04:55:24 2024
_audit_creation_method    generated by PSPW module of NWChem


_cell_length_a            10.0667
_cell_length_b             9.1552
_cell_length_c             9.2041
_cell_angle_alpha         90.0000
_cell_angle_beta          90.0000
_cell_angle_gamma         90.0000

_symmetry_space_group_name_H-M     P1  

loop_
_atom_site_type_symbol
_atom_site_fract_x
_atom_site_fract_y
_atom_site_fract_z
Fe            0.129738     -0.247743      0.218922
Fe            0.348442     -0.087360     -0.026412
Fe           -0.141999     -0.084789     -0.227024
Fe           -0.349785     -0.246603      0.033317
H            -0.094794     -0.234790      0.050540
H            -0.417414     -0.058536     -0.193705
H             0.068460     -0.078495     -0.047643
H             0.425251     -0.247483      0.198816
O            -0.195531     -0.240553     -0.097123
O            -0.300698     -0.070409      0.157694
O             0.181045     -0.101825      0.078619
O             0.297921     -0.247413     -0.153559
O            -0.075508     -0.250510      0.152068
O            -0.448949     -0.068516     -0.094060
O             0.045391     -0.078706     -0.152871
O             0.442972     -0.250327      0.095172
Lu            0.153287      0.078475      0.232676
Fe            0.360472      0.247479     -0.020636
Fe           -0.147724      0.237153     -0.236793
Fe           -0.358296      0.090901      0.030937
H            -0.090977      0.087863      0.046676
H            -0.403718      0.271899     -0.192946
H             0.071385      0.247027     -0.060489
H             0.421432      0.090759      0.212300
O            -0.198158      0.081454     -0.102254
O            -0.297103      0.255612      0.153188
O             0.184206      0.248258      0.090119
O             0.301595      0.076560     -0.150032
O            -0.054552      0.096348      0.144835
O            -0.453961      0.245734     -0.110717
O             0.045756      0.251113     -0.162137
O             0.435405      0.074503      0.109859
Fe            0.136112      0.410944      0.214525
Fe            0.352528     -0.421642     -0.026774
Fe           -0.138508     -0.412863     -0.213069
Fe           -0.343022      0.405419      0.031077
H            -0.076365      0.405860      0.049111
H            -0.430084     -0.434266     -0.196670
H             0.103389     -0.432078     -0.043823
H             0.411537      0.422202      0.205973
O            -0.187760      0.422312     -0.085986
O            -0.309871     -0.410327      0.161241
O             0.195131     -0.423123      0.093383
O             0.302038      0.420525     -0.141522
O            -0.054638      0.417738      0.150876
O            -0.447948     -0.411491     -0.094104
O             0.062042     -0.424865     -0.141716
O             0.447533      0.414325      0.109020
Fe            0.141447     -0.247266     -0.266847
Fe            0.356537     -0.083892      0.480419
Fe           -0.145331     -0.072819      0.276660
Fe           -0.349411     -0.247609     -0.465632
H            -0.093242     -0.253167     -0.452386
H            -0.422105     -0.106133      0.305666
H             0.082614     -0.084018      0.454891
H             0.390280     -0.233891     -0.300737
O            -0.214449     -0.243001      0.398597
O            -0.302906     -0.084302     -0.350867
O             0.199706     -0.075205     -0.400700
O             0.293788     -0.229655      0.326831
O            -0.054635     -0.248443     -0.355888
O            -0.450277     -0.083657      0.402082
O             0.040007     -0.098609      0.358338
O             0.437669     -0.252053     -0.392683
Fe            0.155500      0.091313     -0.274615
Fe            0.361610      0.247738      0.477766
Fe           -0.137213      0.248243      0.277588
Fe           -0.355149      0.093885     -0.478068
H            -0.079745      0.080629     -0.460515
H            -0.407586      0.268554      0.303126
H             0.072540      0.299148      0.451255
H             0.422629      0.055307     -0.290155
O            -0.209446      0.097465      0.398312
O            -0.316566      0.251502     -0.338748
O             0.228419      0.256767     -0.389525
O             0.316039      0.080709      0.363347
O            -0.055674      0.081424     -0.359903
O            -0.447876      0.250652      0.398198
O             0.044468      0.257681      0.361925
O             0.455101      0.055747     -0.388812
Fe            0.150589      0.425748     -0.266760
Lu            0.355440     -0.417466      0.442020
Fe           -0.153795     -0.425880      0.285030
Fe           -0.358721      0.422766     -0.460890
H            -0.101366      0.417940     -0.432176
H            -0.389186     -0.413093      0.298984
H             0.091160     -0.401712      0.442908
H             0.429027      0.395418     -0.292717
O            -0.213250      0.420186      0.403332
O            -0.304761     -0.417683     -0.328907
O             0.184614     -0.412872     -0.403332
O             0.298762      0.388710      0.330966
O            -0.050867      0.418129     -0.344171
O            -0.437057     -0.418786      0.395904
O             0.055580     -0.413974      0.345150
O             0.444895      0.412281     -0.394640
data_nwchem_pspw

_audit_creation_date   Sat Aug 24 09:53:02 2024
_audit_creation_method    generated by PSPW module of NWChem


_cell_length_a            10.0667
_cell_length_b             9.1552
_cell_length_c             9.2041
_cell_angle_alpha         90.0000
_cell_angle_beta          90.0000
_cell_angle_gamma         90.0000

_symmetry_space_group_name_H-M     P1  

loop_
_atom_site_type_symbol
_atom_site_fract_x
_atom_site_fract_y
_atom_site_fract_z
Fe            0.133704     -0.249957      0.222549
Fe            0.342002     -0.094468     -0.023998
Fe           -0.158566     -0.087207     -0.219781
Fe           -0.360038     -0.244107      0.018477
H            -0.093963     -0.273731      0.043629
H            -0.402738     -0.085500     -0.205966
H             0.046390     -0.074534     -0.046034
H             0.420963     -0.238493      0.209981
O            -0.210720     -0.262309     -0.101279
O            -0.306145     -0.088106      0.148078
O             0.186920     -0.095304      0.090949
O             0.298248     -0.262745     -0.160646
O            -0.061246     -0.263821      0.142190
O            -0.449760     -0.079270     -0.111998
O             0.044279     -0.071764     -0.151028
O             0.452699     -0.252309      0.110091
Lu            0.150685      0.084641      0.232271
Fe            0.350200      0.258213     -0.024733
Fe           -0.152559      0.238799     -0.243667
Fe           -0.362133      0.086870      0.026377
H            -0.090612      0.074605      0.043520
H            -0.420499      0.259575     -0.192848
H             0.048117      0.258237     -0.045509
H             0.408330      0.085597      0.201058
O            -0.210063      0.078150     -0.090549
O            -0.302994      0.245118      0.140604
O             0.199780      0.271740      0.096660
O             0.300461      0.083276     -0.144555
O            -0.052393      0.083324      0.141072
O            -0.460867      0.241606     -0.100167
O             0.035997      0.253747     -0.148602
O             0.426649      0.087239      0.097883
Fe            0.147638      0.425079      0.228823
Fe            0.372292     -0.411036     -0.025752
Fe           -0.148521     -0.426778     -0.229033
Fe           -0.356989      0.422784      0.027102
H            -0.083075      0.441470      0.048626
H            -0.407351     -0.408847     -0.222253
H             0.078751     -0.408788     -0.050736
H             0.414126      0.408944      0.197804
O            -0.221091      0.407107     -0.103885
O            -0.310243     -0.415741      0.157181
O             0.204190     -0.416525      0.101196
O             0.293954      0.421478     -0.155604
O            -0.060325      0.424050      0.147540
O            -0.442012     -0.418188     -0.119816
O             0.056060     -0.418664     -0.152720
O             0.453367      0.416180      0.099076
Fe            0.146490     -0.251187     -0.273625
Fe            0.361113     -0.087648      0.492526
Fe           -0.147019     -0.082140      0.262576
Fe           -0.335426     -0.246303     -0.486386
H            -0.075614     -0.266757     -0.441374
H            -0.408244     -0.074809      0.291486
H             0.058179     -0.134080      0.440800
H             0.400691     -0.233341     -0.290660
O            -0.181100     -0.248390      0.399845
O            -0.310213     -0.089202     -0.345204
O             0.200592     -0.087331     -0.400950
O             0.303305     -0.228015      0.355658
O            -0.059556     -0.244392     -0.339389
O            -0.431336     -0.091642      0.393948
O             0.050255     -0.094188      0.345913
O             0.445187     -0.249143     -0.382433
Fe            0.151468      0.089017     -0.273479
Fe            0.357108      0.243466      0.480487
Fe           -0.154871      0.261068      0.271218
Fe           -0.342243      0.075383     -0.487169
H            -0.060274      0.067869     -0.456511
H            -0.425021      0.224937      0.293678
H             0.084646      0.270003      0.438577
H             0.422311      0.060088     -0.277341
O            -0.189948      0.082772      0.395213
O            -0.305762      0.243089     -0.361569
O             0.196018      0.250971     -0.397817
O             0.316316      0.074874      0.365628
O            -0.048071      0.076784     -0.353553
O            -0.439587      0.248810      0.394027
O             0.040141      0.263198      0.345086
O             0.451697      0.063370     -0.377436
Fe            0.143576      0.410235     -0.276085
Lu            0.357248     -0.408364      0.483345
Fe           -0.152106     -0.415966      0.281645
Fe           -0.338656      0.410004     -0.486506
H            -0.091589      0.415848     -0.458003
H            -0.405110     -0.408120      0.287124
H             0.113962     -0.423800      0.454703
H             0.411965      0.395771     -0.297381
O            -0.191713      0.422499      0.398201
O            -0.308945     -0.405664     -0.350909
O             0.175537     -0.421433     -0.407536
O             0.329487      0.406573      0.341272
O            -0.068630      0.411545     -0.354956
O            -0.428691     -0.415465      0.392717
O             0.063374     -0.411671      0.362273
O             0.459455      0.409278     -0.387473
data_nwchem_pspw

_audit_creation_date   Sat Aug 24 14:36:38 2024
_audit_creation_method    generated by PSPW module of NWChem


_cell_length_a            10.0667
_cell_length_b             9.1552
_cell_length_c             9.2041
_cell_angle_alpha         90.0000
_cell_angle_beta          90.0000
_cell_angle_gamma         90.0000

_symmetry_space_group_name_H-M     P1  

loop_
_atom_site_type_symbol
_atom_site_fract_x
_atom_site_fract_y
_atom_site_fract_z
Fe            0.149763     -0.247044      0.206243
Fe            0.352718     -0.091297     -0.025009
Fe           -0.139335     -0.076450     -0.202194
Fe           -0.348683     -0.249746      0.030010
H            -0.092563     -0.267841      0.043085
H            -0.405259     -0.079963     -0.198312
H             0.074680     -0.074650     -0.039495
H             0.425956     -0.242808      0.205974
O            -0.184785     -0.244851     -0.079953
O            -0.309368     -0.083470      0.161514
O             0.182573     -0.090084      0.078508
O             0.310631     -0.249129     -0.151855
O            -0.051063     -0.266857      0.141356
O            -0.453416     -0.078059     -0.107643
O             0.046746     -0.080079     -0.143679
O             0.454783     -0.256265      0.105612
Lu            0.138453      0.078229      0.215196
Fe            0.361560      0.255615     -0.037699
Fe           -0.152195      0.262520     -0.224039
Fe           -0.372867      0.081497      0.044358
H            -0.112713      0.080563      0.042028
H            -0.418904      0.241034     -0.199859
H             0.111999      0.264736     -0.050091
H             0.395315      0.059247      0.216180
O            -0.211860      0.086455     -0.093673
O            -0.301929      0.244602      0.164651
O             0.197079      0.256742      0.079516
O             0.287817      0.095195     -0.150252
O            -0.070610      0.095176      0.139034
O            -0.444874      0.241202     -0.097403
O             0.057740      0.261109     -0.140757
O             0.420569      0.069563      0.108946
Fe            0.141940      0.408340      0.217272
Fe            0.364258     -0.414259     -0.032711
Fe           -0.151176     -0.413472     -0.231030
Fe           -0.342512      0.410638      0.040581
H            -0.073351      0.429375      0.045219
H            -0.397230     -0.414589     -0.195294
H             0.083537     -0.410654     -0.046786
H             0.420932      0.414614      0.185569
O            -0.185247      0.426294     -0.088271
O            -0.276345     -0.406846      0.147166
O             0.202519     -0.417897      0.090644
O             0.323527      0.427401     -0.154471
O            -0.045794      0.416907      0.146259
O            -0.430297     -0.413929     -0.096869
O             0.048701     -0.423189     -0.145398
O             0.464332      0.421157      0.091684
Fe            0.150379     -0.242122     -0.275019
Fe            0.364458     -0.081087      0.483478
Fe           -0.142636     -0.085868      0.280516
Fe           -0.348870     -0.248154     -0.478219
H            -0.070857     -0.243186     -0.442624
H            -0.409606     -0.074055      0.309554
H             0.066189     -0.093760      0.459583
H             0.427239     -0.234091     -0.299269
O            -0.196278     -0.256632      0.392760
O            -0.275459     -0.089978     -0.349886
O             0.209499     -0.067359     -0.392619
O             0.315880     -0.226707      0.336759
O            -0.040103     -0.248087     -0.343040
O            -0.434459     -0.086145      0.412343
O             0.040834     -0.080929      0.359476
O             0.444255     -0.234288     -0.401830
Fe            0.139617      0.091299     -0.275176
Fe            0.358033      0.238146      0.480013
Fe           -0.141674      0.251642      0.280913
Fe           -0.346961      0.080885     -0.467869
H            -0.090361      0.088252     -0.443781
H            -0.446233      0.242666      0.303633
H             0.049832      0.314482      0.451599
H             0.416375      0.066587     -0.287654
O            -0.193587      0.084932      0.404172
O            -0.302839      0.255224     -0.337027
O             0.217484      0.254750     -0.389040
O             0.319422      0.073502      0.342369
O            -0.046784      0.085616     -0.348944
O            -0.456172      0.250556      0.407400
O             0.046569      0.262645      0.362314
O             0.454956      0.072755     -0.385648
Fe            0.152636      0.417799     -0.265542
Lu            0.336133     -0.422638      0.461253
Fe           -0.138211     -0.423787      0.287383
Fe           -0.361070      0.419728     -0.478758
H            -0.096693      0.417178     -0.450088
H            -0.393296     -0.409812      0.302735
H             0.075225     -0.410870      0.458346
H             0.423215      0.431016     -0.293251
O            -0.214408      0.410164      0.403111
O            -0.303627     -0.423524     -0.357520
O             0.177335     -0.414121     -0.401232
O             0.309030      0.395361      0.330744
O            -0.060095      0.421765     -0.352425
O            -0.450361     -0.405673      0.383702
O             0.059324     -0.423150      0.352636
O             0.458737      0.427350     -0.391940
data_nwchem_pspw

_audit_creation_date   Sat Aug 24 19:29:06 2024
_audit_creation_method    generated by PSPW module of NWChem


_cell_length_a            10.0667
_cell_length_b             9.1552
_cell_length_c             9.2041
_cell_angle_alpha         90.0000
_cell_angle_beta          90.0000
_cell_angle_gamma         90.0000

_symmetry_space_group_name_H-M     P1  

loop_
_atom_site_type_symbol
_atom_site_fract_x
_atom_site_fract_y
_atom_site_fract_z
Fe            0.130916     -0.252709      0.236779
Fe            0.340649     -0.083709     -0.021032
Fe           -0.146122     -0.087780     -0.228805
Fe           -0.352064     -0.254241      0.011398
H            -0.082349     -0.268355      0.036565
H            -0.432164     -0.104684     -0.201467
H             0.050693     -0.076460     -0.037897
H             0.396886     -0.228461      0.196907
O            -0.193700     -0.248945     -0.110413
O            -0.301152     -0.086765      0.142330
O             0.189546     -0.089011      0.106830
O             0.301898     -0.251489     -0.159758
O            -0.044731     -0.264691      0.134383
O            -0.457707     -0.085542     -0.103203
O             0.044334     -0.095565     -0.139821
O             0.442631     -0.242161      0.100768
Lu            0.152972      0.088491      0.249051
Fe            0.346623      0.259918     -0.026673
Fe           -0.151396      0.247511     -0.216631
Fe           -0.372545      0.080605      0.009089
H            -0.113970      0.105530      0.036013
H            -0.410859      0.255520     -0.199681
H             0.078797      0.225413     -0.039653
H             0.410814      0.069216      0.199457
O            -0.199764      0.087686     -0.095553
O            -0.302683      0.242833      0.145538
O             0.182579      0.249859      0.093021
O             0.311625      0.074070     -0.152194
O            -0.065353      0.081973      0.128317
O            -0.457310      0.255854     -0.103616
O             0.044256      0.235572     -0.137461
O             0.430919      0.096068      0.097058
Fe            0.144397      0.413448      0.219806
Fe            0.354813     -0.408068     -0.011688
Fe           -0.139773     -0.418213     -0.230727
Fe           -0.357222      0.406570      0.030089
H            -0.081844      0.430519      0.027489
H            -0.400712     -0.417302     -0.200939
H             0.082642     -0.412639     -0.052097
H             0.391696      0.413517      0.200743
O            -0.203877      0.429829     -0.095898
O            -0.314782     -0.415214      0.157198
O             0.202595     -0.417741      0.100195
O             0.293738      0.399698     -0.156229
O            -0.051381      0.418887      0.126208
O            -0.444244     -0.416734     -0.105950
O             0.052299     -0.419197     -0.152323
O             0.435663      0.435643      0.108516
Fe            0.146592     -0.257254     -0.274928
Fe            0.363877     -0.076221      0.489610
Fe           -0.152213     -0.081646      0.253064
Fe           -0.337705     -0.248502     -0.488471
H            -0.083617     -0.254516     -0.462009
H            -0.411129     -0.078275      0.300290
H             0.047640     -0.107665      0.460592
H             0.405560     -0.233947     -0.290073
O            -0.185177     -0.242810      0.388447
O            -0.297400     -0.080931     -0.336554
O             0.195075     -0.089137     -0.406439
O             0.314223     -0.224814      0.336075
O            -0.053732     -0.237105     -0.363331
O            -0.424845     -0.085704      0.403512
O             0.034796     -0.106732      0.356794
O             0.442752     -0.233801     -0.390557
Fe            0.160368      0.074644     -0.275685
Fe            0.358448      0.250324      0.482802
Fe           -0.161659      0.249519      0.264674
Fe           -0.343864      0.084507     -0.464657
H            -0.072237      0.080909     -0.448777
H            -0.431697      0.243563      0.304729
H             0.060347      0.264313      0.448671
H             0.440884      0.062510     -0.282733
O            -0.189056      0.076727      0.412848
O            -0.309847      0.256916     -0.333235
O             0.193357      0.255257     -0.416406
O             0.335302      0.075590      0.350719
O            -0.043028      0.081642     -0.347544
O            -0.440807      0.257977      0.407500
O             0.030390      0.244396      0.350150
O             0.452685      0.069883     -0.387700
Fe            0.134994      0.401535     -0.277739
Lu            0.367139     -0.409667      0.470054
Fe           -0.151211     -0.415212      0.263255
Fe           -0.352118      0.425579     -0.477418
H            -0.109778      0.413685     -0.468887
H            -0.383970     -0.411694      0.301817
H             0.071997     -0.451121      0.459239
H             0.432612      0.430049     -0.306981
O            -0.197495      0.425406      0.381080
O            -0.310639     -0.412114     -0.355842
O             0.177777     -0.430041     -0.399439
O             0.301962      0.405508      0.347366
O            -0.076863      0.416338     -0.368172
O            -0.433001     -0.414030      0.396188
O             0.051903     -0.435325      0.354986
O             0.460926      0.404709     -0.402088
data_nwchem_pspw

_audit_creation_date   Sun Aug 25 00:20:41 2024
_audit_creation_method    generated by PSPW module of NWChem


_cell_length_a            10.0667
_cell_length_b             9.1552
_cell_length_c             9.2041
_cell_angle_alpha         90.0000
_cell_angle_beta          90.0000
_cell_angle_gamma         90.0000

_symmetry_space_group_name_H-M     P1  

loop_
_atom_site_type_symbol
_atom_site_fract_x
_atom_site_fract_y
_atom_site_fract_z
Fe            0.135365     -0.254820      0.212845
Fe            0.359029     -0.085917     -0.012839
Fe           -0.132350     -0.075667     -0.228166
Fe           -0.340508     -0.241670      0.031349
H            -0.097630     -0.271784      0.044052
H            -0.418427     -0.119663     -0.187933
H             0.061686     -0.114250     -0.038388
H             0.428699     -0.266465      0.200492
O            -0.200763     -0.247207     -0.098040
O            -0.306033     -0.070097      0.155670
O             0.198352     -0.103384      0.085511
O             0.302852     -0.245799     -0.147261
O            -0.053485     -0.243624      0.133921
O            -0.444312     -0.089801     -0.090127
O             0.050647     -0.081961     -0.139306
O             0.459857     -0.265685      0.100360
Lu            0.147967      0.076731      0.198496
Fe            0.372489      0.265475     -0.022421
Fe           -0.151354      0.251973     -0.217831
Fe           -0.350710      0.079552      0.023675
H            -0.098921      0.084987      0.050898
H            -0.430709      0.262048     -0.205600
H             0.092508      0.253326     -0.046673
H             0.431662      0.064152      0.203325
O            -0.191987      0.078455     -0.094412
O            -0.296600      0.247571      0.140561
O             0.214671      0.268297      0.073906
O             0.293052      0.074127     -0.135169
O            -0.070195      0.082878      0.150982
O            -0.446911      0.246330     -0.103144
O             0.053270      0.249936     -0.143262
O             0.458615      0.088588      0.104962
Fe            0.141003      0.411731      0.207501
Fe            0.361854     -0.411729     -0.024761
Fe           -0.158957     -0.404104     -0.217676
Fe           -0.349672      0.421171      0.033980
H            -0.110484      0.418919      0.058882
H            -0.402402     -0.428117     -0.194471
H             0.084217     -0.426266     -0.056558
H             0.407613      0.412331      0.195864
O            -0.186962      0.423289     -0.091626
O            -0.293453     -0.413978      0.156176
O             0.207543     -0.411235      0.100091
O             0.309454      0.430358     -0.157789
O            -0.059131      0.422144      0.153175
O            -0.428866     -0.419169     -0.092492
O             0.058213     -0.416250     -0.156425
O             0.455707      0.428664      0.104016
Fe            0.133281     -0.245863     -0.258808
Fe            0.363195     -0.085509      0.464806
Fe           -0.136255     -0.086757      0.268153
Fe           -0.351845     -0.249218     -0.470135
H            -0.098007     -0.252882     -0.446044
H            -0.395140     -0.076618      0.303002
H             0.078686     -0.070526      0.451314
H             0.400449     -0.229332     -0.305531
O            -0.190183     -0.242699      0.413527
O            -0.304772     -0.083285     -0.333005
O             0.212078     -0.073275     -0.398017
O             0.310015     -0.238978      0.339704
O            -0.055376     -0.250999     -0.348900
O            -0.434943     -0.084728      0.399978
O             0.056659     -0.074688      0.349156
O             0.442606     -0.252081     -0.397870
Fe            0.163177      0.083522     -0.271970
Fe            0.353813      0.252871      0.465664
Fe           -0.150114      0.249465      0.290108
Fe           -0.363235      0.076376     -0.466224
H            -0.095630      0.080985     -0.452947
H            -0.400686      0.264642      0.291788
H             0.079692      0.245931      0.453125
H             0.414877      0.064371     -0.296816
O            -0.209340      0.081779      0.404464
O            -0.308619      0.248147     -0.348853
O             0.199588      0.253052     -0.398888
O             0.317110      0.072956      0.339248
O            -0.053701      0.087541     -0.357864
O            -0.441871      0.270775      0.387227
O             0.048162      0.238687      0.352970
O             0.445794      0.079533     -0.396191
Fe            0.134682      0.413862     -0.271202
Lu            0.338987     -0.423431      0.475322
Fe           -0.147815     -0.420588      0.288424
Fe           -0.359978      0.418628     -0.458667
H            -0.094865      0.420410     -0.445343
H            -0.402846     -0.417985      0.311775
H             0.066764     -0.396375      0.457276
H             0.392291      0.412019     -0.310942
O            -0.198487      0.413686      0.421935
O            -0.313547     -0.407651     -0.331435
O             0.170353     -0.416001     -0.403093
O             0.293800      0.396541      0.330742
O            -0.056412      0.423675     -0.347626
O            -0.441878     -0.410213      0.405595
O             0.052973     -0.407362      0.352073
O             0.444718      0.397032     -0.398823
data_nwchem_pspw

_audit_creation_date   Sun Aug 25 05:58:43 2024
_audit_creation_method    generated by PSPW module of NWChem


_cell_length_a            10.0667
_cell_length_b             9.1552
_cell_length_c             9.2041
_cell_angle_alpha         90.0000
_cell_angle_beta          90.0000
_cell_angle_gamma         90.0000

_symmetry_space_group_name_H-M     P1  

loop_
_atom_site_type_symbol
_atom_site_fract_x
_atom_site_fract_y
_atom_site_fract_z
Fe            0.141665     -0.249215      0.223640
Fe            0.344615     -0.089115     -0.013681
Fe           -0.139447     -0.083479     -0.237160
Fe           -0.363022     -0.256279      0.028057
H            -0.096524     -0.258475      0.040996
H            -0.426957     -0.078319     -0.195204
H             0.066459     -0.093510     -0.044016
H             0.406543     -0.266544      0.200851
O            -0.204752     -0.245457     -0.100385
O            -0.299130     -0.091200      0.140624
O             0.188477     -0.079590      0.100033
O             0.297146     -0.246678     -0.153967
O            -0.052715     -0.258518      0.138368
O            -0.463571     -0.070607     -0.097273
O             0.044663     -0.079374     -0.143737
O             0.439500     -0.278532      0.104895
Lu            0.153165      0.090443      0.262619
Fe            0.347012      0.243742     -0.015580
Fe           -0.139400      0.238677     -0.234884
Fe           -0.359115      0.077921      0.014295
H            -0.067787      0.077504      0.044415
H            -0.428426      0.244698     -0.204803
H             0.075317      0.246803     -0.048927
H             0.430331      0.054768      0.214814
O            -0.201908      0.083576     -0.091743
O            -0.316936      0.241635      0.163327
O             0.189846      0.243190      0.104884
O             0.313961      0.072896     -0.156184
O            -0.052325      0.086903      0.146465
O            -0.448652      0.253651     -0.102310
O             0.049990      0.247771     -0.151172
O             0.445147      0.059423      0.109728
Fe            0.147380      0.421870      0.219517
Fe            0.341470     -0.417088     -0.041379
Fe           -0.158865     -0.410897     -0.221492
Fe           -0.357105      0.404367      0.014555
H            -0.085532      0.426199      0.042737
H            -0.419743     -0.425323     -0.205185
H             0.072587     -0.383908     -0.061809
H             0.411254      0.420915      0.193253
O            -0.202742      0.410087     -0.097512
O            -0.298888     -0.421810      0.147259
O             0.195698     -0.404738      0.092988
O             0.296914      0.403245     -0.148613
O            -0.052394      0.413878      0.144650
O            -0.451746     -0.410909     -0.106294
O             0.049933     -0.408868     -0.160193
O             0.442988      0.419603      0.092703
Fe            0.143549     -0.245215     -0.278470
Fe            0.347399     -0.080175      0.494560
Fe           -0.145204     -0.071516      0.268713
Fe           -0.340165     -0.256517     -0.482434
H            -0.077227     -0.246019     -0.466320
H            -0.405243     -0.094898      0.291253
H             0.088229     -0.102801      0.450103
H             0.415974     -0.250540     -0.288397
O            -0.184844     -0.246460      0.396708
O            -0.305915     -0.086588     -0.355977
O             0.175143     -0.074622     -0.404926
O             0.301388     -0.227567      0.350868
O            -0.058785     -0.264037     -0.363552
O            -0.435112     -0.089801      0.391050
O             0.044944     -0.119583      0.355775
O             0.449155     -0.248876     -0.388742
Fe            0.155110      0.092470     -0.263625
Fe            0.358377      0.253464      0.490586
Fe           -0.153155      0.262587      0.264295
Fe           -0.357076      0.089379     -0.493243
H            -0.081165      0.107049     -0.458224
H            -0.430170      0.233156      0.297320
H             0.068365      0.287405      0.461099
H             0.424371      0.053700     -0.287192
O            -0.179290      0.092511      0.418254
O            -0.300393      0.241839     -0.340625
O             0.205630      0.254975     -0.399296
O             0.332814      0.084479      0.370480
O            -0.044193      0.085492     -0.356327
O            -0.452673      0.244060      0.400697
O             0.049395      0.269040      0.360459
O             0.448917      0.072308     -0.388920
Fe            0.135115      0.416439     -0.273623
Lu            0.363549     -0.411728      0.457726
Fe           -0.143833     -0.404788      0.258844
Fe           -0.344884      0.401788     -0.480303
H            -0.100855      0.408453     -0.442796
H            -0.382527     -0.430864      0.287717
H             0.053942     -0.410756      0.442781
H             0.392721      0.397917     -0.303019
O            -0.193681      0.414799      0.406705
O            -0.302986     -0.427877     -0.357807
O             0.190384     -0.423187     -0.403741
O             0.307216      0.397700      0.331241
O            -0.056713      0.407635     -0.348081
O            -0.433619     -0.425965      0.380120
O             0.048009     -0.414150      0.338175
O             0.454325      0.405066     -0.386686
data_nwchem_pspw

_audit_creation_date   Sun Aug 25 10:12:42 2024
_audit_creation_method    generated by PSPW module of NWChem


_cell_length_a            10.0667
_cell_length_b             9.1552
_cell_length_c             9.2041
_cell_angle_alpha         90.0000
_cell_angle_beta          90.0000
_cell_angle_gamma         90.0000

_symmetry_space_group_name_H-M     P1  

loop_
_atom_site_type_symbol
_atom_site_fract_x
_atom_site_fract_y
_atom_site_fract_z
Fe            0.142973     -0.261623      0.223558
Fe            0.352309     -0.098738     -0.043572
Fe           -0.147815     -0.084574     -0.217628
Fe           -0.356606     -0.234148      0.059425
H            -0.078585     -0.265405      0.060159
H            -0.394765     -0.117261     -0.178323
H             0.061310     -0.094831     -0.052191
H             0.399028     -0.246951      0.202173
O            -0.206308     -0.246767     -0.086605
O            -0.293000     -0.065309      0.173794
O             0.193306     -0.110749      0.073872
O             0.304757     -0.258855     -0.169718
O            -0.049394     -0.254545      0.163006
O            -0.443791     -0.097902     -0.088713
O             0.050676     -0.077480     -0.155516
O             0.445980     -0.249848      0.110278
Lu            0.145112      0.077969      0.188968
Fe            0.368045      0.255514     -0.030504
Fe           -0.151645      0.244082     -0.232633
Fe           -0.355060      0.093077      0.037850
H            -0.115483      0.073384      0.054750
H            -0.404300      0.238400     -0.188335
H             0.083120      0.236467     -0.059616
H             0.414431      0.083494      0.225279
O            -0.194724      0.087045     -0.095428
O            -0.285148      0.269998      0.146882
O             0.209973      0.261096      0.077706
O             0.302921      0.084160     -0.138178
O            -0.064496      0.074480      0.148274
O            -0.444786      0.234953     -0.092256
O             0.043619      0.241373     -0.154567
O             0.454208      0.100571      0.129530
Fe            0.141740      0.408953      0.232307
Fe            0.358616     -0.416544     -0.029783
Fe           -0.159486     -0.420568     -0.209620
Fe           -0.353859      0.422803      0.034640
H            -0.075895      0.401334      0.060678
H            -0.418155     -0.431936     -0.203892
H             0.084489     -0.394839     -0.031435
H             0.401535      0.415858      0.195843
O            -0.215498      0.415210     -0.092493
O            -0.307934     -0.409607      0.169652
O             0.205935     -0.418483      0.100398
O             0.312736      0.413698     -0.160935
O            -0.047282      0.431695      0.155692
O            -0.459494     -0.423025     -0.106806
O             0.049005     -0.416118     -0.127599
O             0.446559      0.417479      0.099525
Fe            0.133423     -0.250859     -0.274564
Fe            0.359974     -0.077723      0.480817
Fe           -0.149856     -0.078122      0.295831
Fe           -0.349886     -0.258531     -0.477416
H            -0.080657     -0.220074     -0.451451
H            -0.427786     -0.076365      0.293968
H             0.078328     -0.089691      0.448196
H             0.402961     -0.225549     -0.297873
O            -0.198628     -0.252373      0.395060
O            -0.294760     -0.086846     -0.343113
O             0.218566     -0.085155     -0.398483
O             0.295973     -0.232077      0.353547
O            -0.062808     -0.229046     -0.350444
O            -0.446251     -0.092989      0.393380
O             0.055719     -0.084333      0.347622
O             0.447514     -0.234678     -0.394398
Fe            0.159165      0.089652     -0.271078
Fe            0.350527      0.240219      0.478308
Fe           -0.138121      0.258863      0.280988
Fe           -0.353586      0.075091     -0.475288
H            -0.058789      0.088680     -0.456857
H            -0.432561      0.230682      0.300545
H             0.091952      0.243450      0.449144
H             0.431338      0.073776     -0.289372
O            -0.199041      0.092944      0.401942
O            -0.289911      0.246305     -0.370996
O             0.200439      0.258836     -0.401872
O             0.302511      0.075358      0.363180
O            -0.036198      0.090370     -0.354907
O            -0.441437      0.247470      0.401283
O             0.053057      0.253539      0.352369
O             0.458007      0.074309     -0.388903
Fe            0.131751      0.420010     -0.254063
Lu            0.351336     -0.415698      0.468652
Fe           -0.141452     -0.413299      0.272362
Fe           -0.350593      0.423708     -0.474480
H            -0.074475      0.428439     -0.449407
H            -0.397748     -0.427231      0.287072
H             0.075214     -0.409112      0.457379
H             0.435510      0.420192     -0.301972
O            -0.186628      0.426883      0.398005
O            -0.322673     -0.407234     -0.325993
O             0.188411     -0.413910     -0.393958
O             0.304577      0.400452      0.331339
O            -0.067736      0.416374     -0.345785
O            -0.440580     -0.415520      0.382162
O             0.061834     -0.418468      0.354867
O             0.464086      0.409170     -0.405865
data_nwchem_pspw

_audit_creation_date   Sun Aug 25 14:35:58 2024
_audit_creation_method    generated by PSPW module of NWChem


_cell_length_a            10.0667
_cell_length_b             9.1552
_cell_length_c             9.2041
_cell_angle_alpha         90.0000
_cell_angle_beta          90.0000
_cell_angle_gamma         90.0000

_symmetry_space_group_name_H-M     P1  

loop_
_atom_site_type_symbol
_atom_site_fract_x
_atom_site_fract_y
_atom_site_fract_z
Fe            0.145463     -0.236217      0.216026
Fe            0.343757     -0.087160     -0.017664
Fe           -0.138682     -0.083025     -0.223330
Fe           -0.359237     -0.243964      0.022995
H            -0.083243     -0.255554      0.055771
H            -0.382277     -0.062480     -0.198354
H             0.076100     -0.089847     -0.059442
H             0.431316     -0.233898      0.193819
O            -0.203670     -0.247980     -0.101412
O            -0.302862     -0.074552      0.150715
O             0.180029     -0.072611      0.093517
O             0.298665     -0.262106     -0.144039
O            -0.053198     -0.251146      0.156236
O            -0.436010     -0.065589     -0.109342
O             0.061346     -0.095730     -0.164485
O             0.456508     -0.238499      0.092311
Lu            0.140072      0.092011      0.261183
Fe            0.351749      0.251812     -0.023340
Fe           -0.144496      0.252125     -0.236013
Fe           -0.361779      0.080916      0.016039
H            -0.104002      0.068836      0.058950
H            -0.418024      0.265463     -0.203420
H             0.092190      0.243326     -0.049451
H             0.441256      0.072025      0.203686
O            -0.203148      0.072026     -0.101358
O            -0.308562      0.243605      0.149252
O             0.194418      0.239964      0.099416
O             0.311022      0.088665     -0.145159
O            -0.063604      0.072772      0.155233
O            -0.443840      0.251682     -0.102551
O             0.056572      0.246459     -0.148910
O             0.443379      0.083164      0.099558
Fe            0.142314      0.419502      0.215854
Fe            0.360129     -0.415735     -0.013384
Fe           -0.151256     -0.422489     -0.221088
Fe           -0.352736      0.415651      0.013267
H            -0.079591      0.398112      0.040896
H            -0.431431     -0.400922     -0.212512
H             0.079110     -0.393341     -0.055511
H             0.422414      0.427642      0.200107
O            -0.192824      0.409901     -0.097967
O            -0.296053     -0.424878      0.128268
O             0.204171     -0.403076      0.105842
O             0.298570      0.417880     -0.144341
O            -0.056808      0.414332      0.141622
O            -0.449254     -0.394852     -0.109742
O             0.048334     -0.421566     -0.150864
O             0.454161      0.446214      0.102256
Fe            0.149863     -0.261932     -0.270523
Fe            0.367131     -0.082256      0.481643
Fe           -0.150403     -0.095914      0.277725
Fe           -0.344361     -0.249578     -0.481672
H            -0.060784     -0.241728     -0.449701
H            -0.393483     -0.070727      0.311723
H             0.086068     -0.100237      0.469752
H             0.398916     -0.240890     -0.292739
O            -0.197007     -0.271169      0.384567
O            -0.284782     -0.086037     -0.344022
O             0.206562     -0.095311     -0.408196
O             0.303856     -0.225857      0.335944
O            -0.049009     -0.248875     -0.346638
O            -0.432582     -0.086462      0.405805
O             0.046636     -0.089952      0.371058
O             0.441873     -0.237547     -0.387367
Fe            0.161444      0.081136     -0.283555
Fe            0.373658      0.243572      0.479370
Fe           -0.158675      0.246911      0.269942
Fe           -0.341914      0.084236     -0.470966
H            -0.079344      0.079482     -0.464997
H            -0.403074      0.252447      0.305717
H             0.069064      0.250828      0.473178
H             0.438338      0.095378     -0.299431
O            -0.193018      0.079558      0.393143
O            -0.307247      0.260392     -0.347622
O             0.216995      0.257547     -0.398422
O             0.331967      0.064965      0.362366
O            -0.045214      0.079576     -0.366903
O            -0.451720      0.253709      0.397180
O             0.037702      0.260863      0.374514
O             0.459815      0.076326     -0.398897
Fe            0.146694      0.407695     -0.260381
Lu            0.340554     -0.415808      0.459177
Fe           -0.147977     -0.423883      0.253701
Fe           -0.350489      0.423581     -0.493989
H            -0.079337      0.407244     -0.449625
H            -0.407380     -0.411203      0.292898
H             0.047355     -0.437134      0.450114
H             0.424181      0.420541     -0.299413
O            -0.195743      0.415332      0.402480
O            -0.302333     -0.419630     -0.354058
O             0.176490     -0.418397     -0.403517
O             0.297553      0.386275      0.332772
O            -0.056636      0.408099     -0.346126
O            -0.447207     -0.402367      0.386185
O             0.056367     -0.419757      0.343987
O             0.450129      0.413967     -0.400747
data_nwchem_pspw

_audit_creation_date   Sun Aug 25 19:23:16 2024
_audit_creation_method    generated by PSPW module of NWChem


_cell_length_a            10.0667
_cell_length_b             9.1552
_cell_length_c             9.2041
_cell_angle_alpha         90.0000
_cell_angle_beta          90.0000
_cell_angle_gamma         90.0000

_symmetry_space_group_name_H-M     P1  

loop_
_atom_site_type_symbol
_atom_site_fract_x
_atom_site_fract_y
_atom_site_fract_z
Fe            0.138479     -0.265920      0.221432
Fe            0.351444     -0.089135     -0.044287
Fe           -0.135971     -0.076350     -0.224982
Fe           -0.349724     -0.245784      0.026504
H            -0.095264     -0.247219      0.049990
H            -0.397233     -0.077331     -0.180954
H             0.089771     -0.098542     -0.048972
H             0.387361     -0.239190      0.205622
O            -0.187826     -0.223928     -0.091471
O            -0.311968     -0.074373      0.163914
O             0.196946     -0.118107      0.074666
O             0.296012     -0.261848     -0.155382
O            -0.049134     -0.266182      0.143978
O            -0.448732     -0.094379     -0.089190
O             0.046926     -0.080179     -0.143656
O             0.437587     -0.254610      0.116788
Lu            0.165228      0.082824      0.198461
Fe            0.350594      0.268843     -0.026814
Fe           -0.155635      0.245502     -0.214320
Fe           -0.373109      0.085035      0.033202
H            -0.101696      0.061298      0.049968
H            -0.458903      0.219521     -0.205942
H             0.075682      0.268269     -0.060705
H             0.426748      0.042864      0.204449
O            -0.218745      0.082925     -0.090278
O            -0.321282      0.242731      0.160785
O             0.185386      0.270369      0.078941
O             0.290132      0.083803     -0.160286
O            -0.056309      0.071114      0.143449
O            -0.466739      0.238934     -0.104775
O             0.043640      0.254099     -0.159571
O             0.412139      0.051383      0.102876
Fe            0.132475      0.421125      0.225700
Fe            0.354490     -0.414265     -0.009665
Fe           -0.149430     -0.403137     -0.220842
Fe           -0.352556      0.412956      0.029719
H            -0.061934      0.417760      0.053042
H            -0.429703     -0.415582     -0.189444
H             0.089831     -0.407635     -0.049770
H             0.402413      0.401189      0.200773
O            -0.203835      0.412176     -0.089833
O            -0.294103     -0.420073      0.153924
O             0.192051     -0.418300      0.100256
O             0.282265      0.419016     -0.152661
O            -0.056747      0.411853      0.157198
O            -0.451840     -0.416607     -0.087187
O             0.056551     -0.415397     -0.147545
O             0.447120      0.411168      0.104924
Fe            0.144293     -0.242278     -0.281095
Fe            0.358673     -0.078279      0.476367
Fe           -0.138904     -0.094319      0.272240
Fe           -0.336987     -0.234741     -0.467917
H            -0.085868     -0.241345     -0.463262
H            -0.402363     -0.073834      0.306046
H             0.089646     -0.113757      0.453006
H             0.423373     -0.217483     -0.294842
O            -0.186531     -0.249081      0.406318
O            -0.306266     -0.078234     -0.334044
O             0.181437     -0.085326     -0.407533
O             0.301483     -0.240268      0.356386
O            -0.053272     -0.245746     -0.363417
O            -0.425502     -0.077730      0.409516
O             0.050534     -0.101218      0.357491
O             0.443607     -0.226852     -0.397754
Fe            0.139221      0.082012     -0.284802
Fe            0.348005      0.254582      0.471593
Fe           -0.152971      0.226562      0.287676
Fe           -0.355482      0.095379     -0.465187
H            -0.083294      0.083041     -0.453065
H            -0.423136      0.266892      0.306694
H             0.079677      0.230699      0.455600
H             0.402400      0.068558     -0.291123
O            -0.187275      0.074445      0.427086
O            -0.304269      0.258683     -0.336944
O             0.186653      0.246635     -0.408560
O             0.320976      0.079774      0.361504
O            -0.055558      0.082903     -0.350206
O            -0.446910      0.257635      0.409702
O             0.052637      0.221978      0.354422
O             0.444481      0.073101     -0.387319
Fe            0.137523      0.416640     -0.278359
Lu            0.366248     -0.417763      0.476433
Fe           -0.149700     -0.421880      0.277433
Fe           -0.350719      0.430696     -0.476098
H            -0.098922      0.422801     -0.443248
H            -0.407503     -0.429003      0.294381
H             0.070758     -0.433152      0.472116
H             0.427941      0.401435     -0.278613
O            -0.203362      0.416592      0.396675
O            -0.307128     -0.410582     -0.338183
O             0.195293     -0.417127     -0.398541
O             0.303759      0.409255      0.333734
O            -0.072515      0.425940     -0.343627
O            -0.424388     -0.412832      0.396152
O             0.051149     -0.422576      0.368671
O             0.448071      0.406656     -0.380018
data_nwchem_pspw

_audit_creation_date   Mon Aug 26 00:14:29 2024
_audit_creation_method    generated by PSPW module of NWChem


_cell_length_a            10.0667
_cell_length_b             9.1552
_cell_length_c             9.2041
_cell_angle_alpha         90.0000
_cell_angle_beta          90.0000
_cell_angle_gamma         90.0000

_symmetry_space_group_name_H-M     P1  

loop_
_atom_site_type_symbol
_atom_site_fract_x
_atom_site_fract_y
_atom_site_fract_z
Fe            0.157379     -0.257085      0.198397
Fe            0.360431     -0.087735     -0.023108
Fe           -0.144737     -0.077599     -0.242222
Fe           -0.333964     -0.253974      0.015631
H            -0.074852     -0.247924      0.032403
H            -0.418091     -0.089670     -0.199077
H             0.060056     -0.058365     -0.054491
H             0.444263     -0.235286      0.204193
O            -0.179828     -0.248012     -0.107988
O            -0.301524     -0.067994      0.162659
O             0.189365     -0.083900      0.098827
O             0.315275     -0.261273     -0.153150
O            -0.046536     -0.246748      0.133920
O            -0.429932     -0.082561     -0.094682
O             0.042567     -0.067062     -0.155064
O             0.461421     -0.238849      0.101137
Lu            0.129553      0.086801      0.260181
Fe            0.353144      0.250972     -0.019310
Fe           -0.162618      0.249384     -0.233060
Fe           -0.350928      0.079691      0.038694
H            -0.096945      0.090784      0.046723
H            -0.438132      0.228654     -0.208422
H             0.068694      0.265560     -0.052235
H             0.436812      0.121374      0.200175
O            -0.193557      0.069710     -0.098029
O            -0.281484      0.249584      0.143824
O             0.195458      0.254838      0.091119
O             0.308899      0.083423     -0.137485
O            -0.062326      0.083271      0.147242
O            -0.463662      0.263058     -0.115680
O             0.045522      0.252404     -0.155084
O             0.456083      0.106049      0.098152
Fe            0.142306      0.414651      0.217633
Fe            0.370860     -0.430623     -0.026509
Fe           -0.128611     -0.423804     -0.246392
Fe           -0.351548      0.405048      0.009951
H            -0.069560      0.417082      0.039394
H            -0.398430     -0.416889     -0.195692
H             0.107191     -0.408749     -0.037218
H             0.443876      0.412537      0.223943
O            -0.190273      0.412845     -0.103424
O            -0.296654     -0.410456      0.160829
O             0.197967     -0.423368      0.084202
O             0.305490      0.413823     -0.147871
O            -0.050252      0.404620      0.142029
O            -0.436269     -0.418466     -0.094113
O             0.063993     -0.415947     -0.136103
O             0.464260      0.419703      0.121512
Fe            0.148691     -0.255176     -0.267570
Fe            0.358329     -0.085780      0.474635
Fe           -0.138695     -0.075155      0.268058
Fe           -0.348657     -0.249195     -0.483311
H            -0.057620     -0.261068     -0.475979
H            -0.407090     -0.059821      0.298264
H             0.076730     -0.095123      0.471593
H             0.398726     -0.236085     -0.310374
O            -0.197691     -0.238184      0.394781
O            -0.316943     -0.079604     -0.347276
O             0.207462     -0.082275     -0.392945
O             0.311268     -0.231606      0.337068
O            -0.045665     -0.255717     -0.372087
O            -0.442545     -0.068167      0.397812
O             0.055091     -0.101387      0.369966
O             0.429771     -0.250580     -0.409742
Fe            0.149256      0.088847     -0.257896
Fe            0.352060      0.239934      0.485309
Fe           -0.144713      0.271056      0.277617
Fe           -0.354521      0.079060     -0.472435
H            -0.070409      0.082379     -0.450957
H            -0.396042      0.238470      0.295744
H             0.076589      0.293450      0.459615
H             0.428735      0.081756     -0.301212
O            -0.205252      0.090773      0.402856
O            -0.314332      0.240279     -0.352231
O             0.206013      0.245698     -0.396161
O             0.316518      0.072149      0.354288
O            -0.046231      0.078725     -0.349340
O            -0.435873      0.268323      0.386118
O             0.041978      0.270823      0.364640
O             0.446615      0.066185     -0.402582
Fe            0.145961      0.419439     -0.265545
Lu            0.333698     -0.417330      0.459034
Fe           -0.135937     -0.405601      0.276421
Fe           -0.354562      0.414161     -0.474260
H            -0.068631      0.409553     -0.460369
H            -0.402679     -0.414013      0.301392
H             0.082612     -0.409322      0.448333
H             0.415202      0.406913     -0.291358
O            -0.194503      0.424380      0.409205
O            -0.316743     -0.411615     -0.338255
O             0.173869     -0.421925     -0.402845
O             0.302015      0.389797      0.333077
O            -0.055224      0.394470     -0.357409
O            -0.452619     -0.428752      0.392074
O             0.057012     -0.400311      0.343890
O             0.435327      0.414319     -0.393172
data_nwchem_pspw

_audit_creation_date   Mon Aug 26 04:14:53 2024
_audit_creation_method    generated by PSPW module of NWChem


_cell_length_a            10.0667
_cell_length_b             9.1552
_cell_length_c             9.2041
_cell_angle_alpha         90.0000
_cell_angle_beta          90.0000
_cell_angle_gamma         90.0000

_symmetry_space_group_name_H-M     P1  

loop_
_atom_site_type_symbol
_atom_site_fract_x
_atom_site_fract_y
_atom_site_fract_z
Fe            0.140950     -0.249681      0.215495
Fe            0.355003     -0.088165     -0.035195
Fe           -0.160736     -0.088603     -0.218807
Fe           -0.360257     -0.239853      0.033295
H            -0.093438     -0.267737      0.056631
H            -0.429352     -0.071828     -0.215412
H             0.094239     -0.093646     -0.062649
H             0.417244     -0.228290      0.222027
O            -0.208820     -0.248172     -0.092450
O            -0.297440     -0.076517      0.149387
O             0.185855     -0.103447      0.063711
O             0.296675     -0.254212     -0.174537
O            -0.060376     -0.260069      0.154686
O            -0.452834     -0.093591     -0.114200
O             0.045592     -0.092425     -0.154311
O             0.449530     -0.242042      0.123910
Lu            0.164533      0.079657      0.206887
Fe            0.342590      0.271423     -0.033348
Fe           -0.148940      0.248250     -0.217306
Fe           -0.368083      0.086900      0.031620
H            -0.100477      0.098463      0.046614
H            -0.438540      0.214057     -0.202447
H             0.058986      0.267981     -0.043347
H             0.419633      0.044393      0.201295
O            -0.205361      0.086140     -0.087803
O            -0.311794      0.242252      0.159696
O             0.188134      0.273715      0.090463
O             0.293012      0.087703     -0.156664
O            -0.055106      0.093011      0.139782
O            -0.459769      0.233512     -0.100891
O             0.051290      0.256311     -0.148862
O             0.430304      0.066736      0.098279
Fe            0.144073      0.419143      0.238260
Fe            0.346653     -0.408261     -0.023072
Fe           -0.145192     -0.424860     -0.218745
Fe           -0.350904      0.422599      0.034464
H            -0.095029      0.421074      0.060325
H            -0.392713     -0.404341     -0.183638
H             0.065563     -0.426954     -0.058036
H             0.400459      0.406190      0.209437
O            -0.201729      0.428219     -0.078934
O            -0.300482     -0.411405      0.161509
O             0.201508     -0.414470      0.100999
O             0.298042      0.439342     -0.155802
O            -0.057087      0.429562      0.158649
O            -0.440322     -0.415448     -0.091469
O             0.042141     -0.418883     -0.158401
O             0.450543      0.398430      0.115230
Fe            0.143839     -0.237140     -0.294698
Fe            0.351498     -0.091708      0.496187
Fe           -0.144244     -0.079692      0.273705
Fe           -0.341794     -0.258777     -0.469604
H            -0.096100     -0.261017     -0.457295
H            -0.428625     -0.092387      0.292370
H             0.077905     -0.088985      0.438678
H             0.404346     -0.244544     -0.286376
O            -0.193707     -0.229881      0.407168
O            -0.307816     -0.082136     -0.346203
O             0.185094     -0.069479     -0.397548
O             0.287660     -0.227629      0.355718
O            -0.063079     -0.250434     -0.359345
O            -0.446246     -0.101483      0.394629
O             0.047749     -0.091814      0.339427
O             0.448762     -0.253554     -0.381783
Fe            0.136537      0.090945     -0.271786
Fe            0.373141      0.248321      0.481175
Fe           -0.152343      0.260057      0.274707
Fe           -0.352158      0.069125     -0.491681
H            -0.107148      0.062685     -0.449060
H            -0.416298      0.257695      0.292699
H             0.079762      0.242624      0.456759
H             0.404395      0.066998     -0.304630
O            -0.188880      0.090937      0.405865
O            -0.311039      0.228782     -0.344014
O             0.205965      0.250663     -0.404125
O             0.320393      0.064576      0.358465
O            -0.058050      0.084032     -0.359703
O            -0.444522      0.245009      0.394262
O             0.066554      0.237895      0.353632
O             0.450456      0.057820     -0.397723
Fe            0.140289      0.414647     -0.282247
Lu            0.362536     -0.409457      0.469578
Fe           -0.152322     -0.411031      0.291499
Fe           -0.346299      0.397813     -0.460670
H            -0.085349      0.399388     -0.446961
H            -0.390114     -0.408911      0.308811
H             0.070748     -0.419845      0.463588
H             0.436904      0.408632     -0.279518
O            -0.202724      0.402916      0.412186
O            -0.297505     -0.420762     -0.341510
O             0.177153     -0.422489     -0.411751
O             0.318689      0.400787      0.340399
O            -0.063519      0.420031     -0.346916
O            -0.423797     -0.430614      0.405536
O             0.047245     -0.413164      0.361068
O             0.455776      0.418416     -0.381574
data_nwchem_pspw

_audit_creation_date   Mon Aug 26 13:46:34 2024
_audit_creation_method    generated by PSPW module of NWChem


_cell_length_a            10.0667
_cell_length_b             9.1552
_cell_length_c             9.2041
_cell_angle_alpha         90.0000
_cell_angle_beta          90.0000
_cell_angle_gamma         90.0000

_symmetry_space_group_name_H-M     P1  

loop_
_atom_site_type_symbol
_atom_site_fract_x
_atom_site_fract_y
_atom_site_fract_z
Fe            0.134859     -0.242127      0.222638
Fe            0.348592     -0.092325     -0.008779
Fe           -0.137143     -0.076372     -0.231648
Fe           -0.347775     -0.248941      0.031936
H            -0.097754     -0.242279      0.050820
H            -0.472894     -0.071362     -0.208839
H             0.093198     -0.096329     -0.051941
H             0.411024     -0.225371      0.200540
O            -0.187742     -0.245270     -0.092787
O            -0.308636     -0.076091      0.158493
O             0.175651     -0.095860      0.083081
O             0.303083     -0.255564     -0.145900
O            -0.060248     -0.239432      0.151010
O            -0.460300     -0.083037     -0.106070
O             0.055324     -0.079527     -0.151209
O             0.439235     -0.244103      0.100293
Lu            0.136873      0.084737      0.236390
Fe            0.356073      0.246218     -0.026744
Fe           -0.143950      0.248711     -0.229919
Fe           -0.363736      0.074608      0.023116
H            -0.106142      0.085020      0.056800
H            -0.417763      0.249121     -0.205013
H             0.090385      0.246635     -0.055984
H             0.423694      0.068025      0.211732
O            -0.198535      0.077981     -0.105184
O            -0.303294      0.244041      0.141312
O             0.195679      0.256801      0.097949
O             0.311610      0.070969     -0.154070
O            -0.066116      0.083342      0.152063
O            -0.447864      0.243142     -0.104247
O             0.049170      0.263454     -0.151959
O             0.440751      0.080285      0.107336
Fe            0.149645      0.415513      0.235854
Fe            0.349078     -0.420820     -0.030301
Fe           -0.137470     -0.410754     -0.217834
Fe           -0.343259      0.410278      0.023542
H            -0.066239      0.407249      0.042946
H            -0.406975     -0.383637     -0.191791
H             0.091368     -0.435120     -0.049526
H             0.408739      0.407893      0.202444
O            -0.200059      0.409960     -0.105762
O            -0.308836     -0.421545      0.158548
O             0.198841     -0.419156      0.102400
O             0.316946      0.411149     -0.164923
O            -0.048034      0.410789      0.146284
O            -0.436757     -0.406923     -0.092761
O             0.060922     -0.426365     -0.149623
O             0.454923      0.410162      0.109792
Fe            0.139272     -0.253934     -0.266862
Fe            0.359341     -0.083745      0.487171
Fe           -0.161497     -0.096573      0.281111
Fe           -0.363974     -0.243783     -0.469215
H            -0.089112     -0.237833     -0.455208
H            -0.433969     -0.097590      0.291414
H             0.086186     -0.115014      0.456819
H             0.403177     -0.245602     -0.283617
O            -0.205178     -0.251203      0.410191
O            -0.292695     -0.081863     -0.355201
O             0.207637     -0.088202     -0.399952
O             0.291011     -0.223493      0.346257
O            -0.042469     -0.226822     -0.362128
O            -0.452376     -0.088131      0.393783
O             0.028502     -0.089049      0.378128
O             0.441346     -0.244509     -0.380956
Fe            0.152009      0.080182     -0.276044
Fe            0.371676      0.245282      0.468546
Fe           -0.145796      0.244420      0.272199
Fe           -0.335059      0.085488     -0.481684
H            -0.052963      0.046915     -0.461041
H            -0.429396      0.273559      0.286040
H             0.082334      0.249681      0.454698
H             0.435178      0.103307     -0.296068
O            -0.184444      0.074466      0.399755
O            -0.287071      0.256459     -0.358920
O             0.207221      0.252778     -0.409291
O             0.318154      0.068560      0.348703
O            -0.042935      0.087173     -0.364652
O            -0.449183      0.263751      0.388495
O             0.048427      0.264494      0.357114
O             0.467484      0.085885     -0.394815
Fe            0.167328      0.408615     -0.278555
Lu            0.343133     -0.414648      0.461870
Fe           -0.135999     -0.423148      0.262122
Fe           -0.343081      0.431210     -0.473566
H            -0.098686      0.437810     -0.454374
H            -0.397329     -0.419121      0.298306
H             0.042154     -0.426707      0.456305
H             0.450134      0.419756     -0.298032
O            -0.204353      0.423243      0.394201
O            -0.316200     -0.407013     -0.334879
O             0.173805     -0.409860     -0.401156
O             0.309240      0.398680      0.335737
O            -0.068148      0.433900     -0.356065
O            -0.447004     -0.391430      0.387461
O             0.044552     -0.418766      0.349984
O             0.462328      0.427898     -0.401831
data_nwchem_pspw

_audit_creation_date   Mon Aug 26 19:05:46 2024
_audit_creation_method    generated by PSPW module of NWChem


_cell_length_a            10.0667
_cell_length_b             9.1552
_cell_length_c             9.2041
_cell_angle_alpha         90.0000
_cell_angle_beta          90.0000
_cell_angle_gamma         90.0000

_symmetry_space_group_name_H-M     P1  

loop_
_atom_site_type_symbol
_atom_site_fract_x
_atom_site_fract_y
_atom_site_fract_z
Fe            0.149492     -0.249196      0.222630
Fe            0.348446     -0.088038     -0.017961
Fe           -0.148990     -0.083541     -0.233121
Fe           -0.357308     -0.244255      0.029091
H            -0.078126     -0.254655      0.038459
H            -0.431444     -0.063111     -0.199917
H             0.089771     -0.093740     -0.053908
H             0.417570     -0.226160      0.208007
O            -0.202822     -0.242713     -0.091014
O            -0.311285     -0.079980      0.162531
O             0.175107     -0.092468      0.084167
O             0.292996     -0.253550     -0.140649
O            -0.051354     -0.252409      0.140498
O            -0.448888     -0.089569     -0.100443
O             0.046508     -0.085753     -0.151454
O             0.443495     -0.261793      0.112399
Lu            0.152114      0.089026      0.242396
Fe            0.346438      0.267217     -0.030222
Fe           -0.153849      0.252466     -0.228705
Fe           -0.352476      0.081757      0.022461
H            -0.085746      0.066672      0.046068
H            -0.404404      0.252236     -0.201697
H             0.088803      0.247656     -0.047097
H             0.442769      0.069594      0.210680
O            -0.203629      0.097316     -0.102289
O            -0.301301      0.257306      0.151861
O             0.193574      0.261294      0.084396
O             0.303108      0.093114     -0.149111
O            -0.060977      0.072755      0.148212
O            -0.451790      0.253326     -0.108354
O             0.046723      0.245915     -0.142705
O             0.454918      0.085438      0.106492
Fe            0.152536      0.414342      0.215896
Fe            0.357258     -0.414731     -0.027683
Fe           -0.149291     -0.420690     -0.226094
Fe           -0.364005      0.416552      0.021931
H            -0.082910      0.403719      0.043033
H            -0.406749     -0.419336     -0.194874
H             0.084554     -0.411203     -0.046416
H             0.429366      0.419828      0.206058
O            -0.201530      0.414664     -0.094250
O            -0.302570     -0.425905      0.152978
O             0.195280     -0.418972      0.101238
O             0.290883      0.420523     -0.160734
O            -0.049674      0.400022      0.142831
O            -0.453906     -0.426725     -0.101448
O             0.050403     -0.421458     -0.144682
O             0.451531      0.417615      0.103363
Fe            0.135515     -0.255897     -0.270053
Fe            0.360979     -0.081695      0.492317
Fe           -0.155919     -0.089781      0.274430
Fe           -0.351001     -0.243490     -0.471825
H            -0.092103     -0.276779     -0.441071
H            -0.418378     -0.077688      0.294766
H             0.034679     -0.098044      0.460490
H             0.435085     -0.236764     -0.296892
O            -0.194508     -0.256734      0.390335
O            -0.307099     -0.071290     -0.357020
O             0.191821     -0.096427     -0.400650
O             0.309111     -0.220185      0.346436
O            -0.052665     -0.248806     -0.351355
O            -0.440587     -0.081137      0.397854
O             0.043527     -0.099950      0.357306
O             0.450557     -0.236521     -0.399024
Fe            0.145440      0.086127     -0.267962
Fe            0.369561      0.235348      0.487012
Fe           -0.144573      0.247001      0.269245
Fe           -0.339922      0.093629     -0.483479
H            -0.096852      0.095614     -0.440145
H            -0.434217      0.261773      0.298982
H             0.093055      0.268210      0.457981
H             0.396180      0.083747     -0.286264
O            -0.178049      0.081581      0.410619
O            -0.314652      0.254323     -0.348429
O             0.196748      0.239882     -0.406629
O             0.335285      0.068892      0.348798
O            -0.044604      0.073718     -0.353311
O            -0.447129      0.255520      0.402675
O             0.056845      0.270927      0.358249
O             0.440269      0.069721     -0.379273
Fe            0.131255      0.402833     -0.277306
Lu            0.349272     -0.415824      0.463301
Fe           -0.127682     -0.425928      0.258288
Fe           -0.349772      0.430944     -0.487271
H            -0.105609      0.406431     -0.451947
H            -0.399169     -0.413770      0.293973
H             0.078476     -0.425917      0.455914
H             0.446769      0.408090     -0.286310
O            -0.185768      0.425935      0.409491
O            -0.307856     -0.410371     -0.340797
O             0.175927     -0.413545     -0.406968
O             0.320949      0.389000      0.344088
O            -0.064683      0.400649     -0.350749
O            -0.441758     -0.425030      0.390292
O             0.068546     -0.418660      0.345238
O             0.462179      0.418880     -0.388140
data_nwchem_pspw

_audit_creation_date   Mon Aug 26 23:52:03 2024
_audit_creation_method    generated by PSPW module of NWChem


_cell_length_a            10.0667
_cell_length_b             9.1552
_cell_length_c             9.2041
_cell_angle_alpha         90.0000
_cell_angle_beta          90.0000
_cell_angle_gamma         90.0000

_symmetry_space_group_name_H-M     P1  

loop_
_atom_site_type_symbol
_atom_site_fract_x
_atom_site_fract_y
_atom_site_fract_z
Fe            0.141770     -0.248102      0.218602
Fe            0.367475     -0.078304     -0.033991
Fe           -0.142834     -0.090693     -0.240303
Fe           -0.354997     -0.245153      0.030519
H            -0.074853     -0.232294      0.042614
H            -0.396804     -0.067862     -0.202536
H             0.090269     -0.098986     -0.055199
H             0.409510     -0.230969      0.202056
O            -0.203014     -0.251446     -0.093672
O            -0.289791     -0.085553      0.153358
O             0.202861     -0.095870      0.075614
O             0.297900     -0.265357     -0.157851
O            -0.051019     -0.247971      0.143440
O            -0.440303     -0.082120     -0.107501
O             0.045726     -0.071982     -0.146689
O             0.436838     -0.236470      0.101675
Lu            0.144448      0.075437      0.202213
Fe            0.348314      0.260211     -0.027169
Fe           -0.155433      0.243310     -0.219451
Fe           -0.363996      0.083111      0.030428
H            -0.104338      0.088656      0.047782
H            -0.398159      0.250221     -0.203580
H             0.074673      0.268239     -0.054686
H             0.425759      0.098329      0.218937
O            -0.204473      0.077790     -0.092649
O            -0.305254      0.248721      0.163008
O             0.182584      0.262699      0.083548
O             0.297338      0.072750     -0.159352
O            -0.063856      0.082423      0.145812
O            -0.450298      0.246774     -0.113699
O             0.036263      0.253363     -0.151310
O             0.438052      0.095297      0.114930
Fe            0.148449      0.406067      0.224990
Fe            0.348031     -0.412553     -0.017291
Fe           -0.166202     -0.412082     -0.220505
Fe           -0.352140      0.416379      0.038715
H            -0.087649      0.400113      0.052612
H            -0.418974     -0.389696     -0.196164
H             0.082225     -0.405327     -0.050111
H             0.411947      0.418907      0.200855
O            -0.209598      0.406583     -0.097020
O            -0.293491     -0.409948      0.154729
O             0.193640     -0.422324      0.103547
O             0.303840      0.419584     -0.154593
O            -0.054987      0.407868      0.150060
O            -0.444791     -0.401078     -0.094704
O             0.045043     -0.421607     -0.144968
O             0.456875      0.423303      0.106283
Fe            0.146126     -0.241808     -0.290427
Fe            0.363521     -0.085505      0.492126
Fe           -0.136404     -0.089419      0.284266
Fe           -0.342813     -0.248636     -0.466032
H            -0.075494     -0.270517     -0.454487
H            -0.425403     -0.083255      0.289916
H             0.100322     -0.107632      0.452447
H             0.417272     -0.254461     -0.295342
O            -0.187192     -0.241990      0.406759
O            -0.302457     -0.084558     -0.332468
O             0.201583     -0.075067     -0.406407
O             0.294094     -0.233970      0.351692
O            -0.058456     -0.253140     -0.349794
O            -0.438226     -0.081439      0.393766
O             0.061846     -0.095385      0.355488
O             0.457624     -0.234386     -0.393122
Fe            0.134440      0.083374     -0.261239
Fe            0.352095      0.257414      0.472111
Fe           -0.146789      0.243076      0.283789
Fe           -0.364590      0.081207     -0.471199
H            -0.088386      0.097639     -0.453992
H            -0.423059      0.256349      0.296370
H             0.096443      0.274579      0.444251
H             0.408018      0.097532     -0.305093
O            -0.209498      0.083085      0.417246
O            -0.317812      0.242769     -0.347855
O             0.211683      0.239131     -0.396576
O             0.310458      0.069957      0.368479
O            -0.053907      0.091026     -0.356479
O            -0.443810      0.253637      0.398787
O             0.056373      0.267503      0.348340
O             0.441539      0.074789     -0.399569
Fe            0.136124      0.425992     -0.269019
Lu            0.369583     -0.415946      0.474660
Fe           -0.134172     -0.415807      0.270751
Fe           -0.359766      0.411135     -0.467998
H            -0.107713      0.424200     -0.446855
H            -0.395844     -0.413286      0.284956
H             0.089908     -0.404240      0.448622
H             0.404355      0.408596     -0.277306
O            -0.192092      0.416029      0.408231
O            -0.317906     -0.416110     -0.341386
O             0.187895     -0.409875     -0.415213
O             0.316259      0.406764      0.328497
O            -0.065245      0.423373     -0.349487
O            -0.419189     -0.410922      0.388801
O             0.058368     -0.416143      0.349517
O             0.444938      0.407711     -0.375808
data_nwchem_pspw

_audit_creation_date   Tue Aug 27 23:41:28 2024
_audit_creation_method    generated by PSPW module of NWChem


_cell_length_a            10.0667
_cell_length_b             9.1552
_cell_length_c             9.2041
_cell_angle_alpha         90.0000
_cell_angle_beta          90.0000
_cell_angle_gamma         90.0000

_symmetry_space_group_name_H-M     P1  

loop_
_atom_site_type_symbol
_atom_site_fract_x
_atom_site_fract_y
_atom_site_fract_z
Fe            0.139227     -0.233379      0.208565
Fe            0.355542     -0.093015     -0.016343
Fe           -0.131814     -0.087152     -0.244761
Fe           -0.346667     -0.247758      0.015103
H            -0.069575     -0.232283      0.035972
H            -0.416323     -0.101958     -0.211033
H             0.063022     -0.072658     -0.063200
H             0.429098     -0.254894      0.206630
O            -0.193314     -0.246442     -0.120489
O            -0.305961     -0.080870      0.154770
O             0.205093     -0.066052      0.099021
O             0.309494     -0.250865     -0.143930
O            -0.050188     -0.218269      0.139942
O            -0.431931     -0.097040     -0.108934
O             0.059742     -0.080480     -0.166230
O             0.445060     -0.265537      0.103449
Lu            0.143886      0.089762      0.276444
Fe            0.352751      0.244248     -0.014377
Fe           -0.144998      0.254231     -0.247749
Fe           -0.332210      0.074536      0.011360
H            -0.080783      0.086457      0.051911
H            -0.408977      0.265268     -0.200627
H             0.033159      0.230481     -0.051118
H             0.455734      0.046193      0.185068
O            -0.177040      0.081433     -0.102608
O            -0.300197      0.236358      0.144694
O             0.201748      0.245728      0.114046
O             0.309737      0.081131     -0.149640
O            -0.058027      0.092060      0.154875
O            -0.440319      0.239478     -0.103081
O             0.049056      0.246077     -0.151631
O             0.465004      0.067909      0.085376
Fe            0.126914      0.417224      0.221310
Fe            0.357338     -0.437984     -0.000393
Fe           -0.144002     -0.416860     -0.232504
Fe           -0.351707      0.411921      0.013956
H            -0.114602      0.415191      0.040551
H            -0.425916     -0.406581     -0.189007
H             0.071929     -0.424659     -0.046293
H             0.434989      0.411056      0.224783
O            -0.204540      0.421283     -0.106165
O            -0.298009     -0.419098      0.149461
O             0.182652     -0.407788      0.092546
O             0.302189      0.415382     -0.133229
O            -0.068214      0.421857      0.132709
O            -0.447246     -0.414093     -0.087062
O             0.042309     -0.432601     -0.147250
O             0.448693      0.396781      0.122570
Fe            0.156219     -0.253573     -0.268543
Fe            0.364000     -0.085842      0.491513
Fe           -0.152369     -0.069116      0.279180
Fe           -0.346779     -0.254724     -0.488547
H            -0.091890     -0.265048     -0.465134
H            -0.411267     -0.094713      0.293445
H             0.061922     -0.120676      0.468449
H             0.412460     -0.265393     -0.319498
O            -0.189684     -0.247026      0.397470
O            -0.278221     -0.094630     -0.360695
O             0.211280     -0.075800     -0.397209
O             0.297457     -0.211562      0.338529
O            -0.046586     -0.244367     -0.373549
O            -0.439827     -0.089316      0.395161
O             0.052833     -0.105122      0.365380
O             0.454912     -0.252141     -0.413747
Fe            0.167676      0.093917     -0.274015
Fe            0.363260      0.247056      0.467498
Fe           -0.159814      0.268366      0.288122
Fe           -0.350659      0.072301     -0.482737
H            -0.057221      0.069857     -0.454617
H            -0.399266      0.233046      0.300496
H             0.066020      0.279871      0.466141
H             0.446307      0.071346     -0.287069
O            -0.199101      0.086360      0.402536
O            -0.312340      0.255623     -0.353530
O             0.195035      0.249891     -0.396957
O             0.337610      0.076828      0.356559
O            -0.027123      0.085217     -0.357271
O            -0.436886      0.255385      0.396874
O             0.034268      0.265149      0.368882
O             0.456108      0.069415     -0.391199
Fe            0.146549      0.415344     -0.262544
Lu            0.326854     -0.418602      0.448965
Fe           -0.145696     -0.398310      0.261511
Fe           -0.358102      0.419742     -0.478676
H            -0.093467      0.428569     -0.450998
H            -0.416962     -0.423429      0.287698
H             0.081941     -0.429868      0.438242
H             0.414744      0.391178     -0.304660
O            -0.191587      0.434018      0.410688
O            -0.305952     -0.418854     -0.358918
O             0.177575     -0.427503     -0.396227
O             0.292201      0.381330      0.334044
O            -0.061404      0.414866     -0.351100
O            -0.452771     -0.427891      0.386567
O             0.050307     -0.411150      0.338276
O             0.431888      0.408736     -0.406182
data_nwchem_pspw

_audit_creation_date   Wed Aug 28 04:52:13 2024
_audit_creation_method    generated by PSPW module of NWChem


_cell_length_a            10.0667
_cell_length_b             9.1552
_cell_length_c             9.2041
_cell_angle_alpha         90.0000
_cell_angle_beta          90.0000
_cell_angle_gamma         90.0000

_symmetry_space_group_name_H-M     P1  

loop_
_atom_site_type_symbol
_atom_site_fract_x
_atom_site_fract_y
_atom_site_fract_z
Fe            0.144859     -0.255974      0.235592
Fe            0.353588     -0.087001     -0.047652
Fe           -0.147892     -0.084762     -0.207638
Fe           -0.361394     -0.253985      0.051394
H            -0.081167     -0.243568      0.046151
H            -0.424587     -0.089726     -0.195622
H             0.073215     -0.108501     -0.039399
H             0.409319     -0.219228      0.194085
O            -0.200845     -0.263594     -0.077067
O            -0.299187     -0.071353      0.163102
O             0.193574     -0.110295      0.065037
O             0.292327     -0.254430     -0.173030
O            -0.046607     -0.252356      0.144953
O            -0.439156     -0.084634     -0.093067
O             0.046061     -0.072327     -0.137774
O             0.431477     -0.245292      0.095809
Lu            0.162040      0.077280      0.179150
Fe            0.345276      0.263948     -0.028422
Fe           -0.156582      0.249607     -0.204635
Fe           -0.366449      0.087850      0.031655
H            -0.099201      0.087665      0.049276
H            -0.442538      0.261228     -0.210692
H             0.084604      0.281059     -0.060738
H             0.413561      0.084825      0.202022
O            -0.202836      0.076265     -0.084093
O            -0.314804      0.257276      0.159086
O             0.184354      0.270917      0.069662
O             0.305372      0.084928     -0.163153
O            -0.056167      0.080869      0.143649
O            -0.467396      0.260183     -0.109020
O             0.042828      0.270782     -0.156263
O             0.427118      0.088752      0.095883
Fe            0.139099      0.406821      0.229946
Fe            0.331396     -0.424017     -0.015369
Fe           -0.160311     -0.410331     -0.212409
Fe           -0.363726      0.425083      0.034271
H            -0.095951      0.400151      0.050981
H            -0.428091     -0.395682     -0.181208
H             0.080727     -0.408050     -0.064498
H             0.399390      0.398132      0.214216
O            -0.208985      0.419095     -0.078299
O            -0.300530     -0.423930      0.167429
O             0.191939     -0.413762      0.113421
O             0.282085      0.430158     -0.162340
O            -0.053287      0.404022      0.146782
O            -0.457396     -0.418198     -0.084532
O             0.043494     -0.399520     -0.160338
O             0.442578      0.429388      0.123522
Fe            0.139303     -0.237205     -0.294058
Fe            0.352855     -0.084321      0.474597
Fe           -0.136172     -0.087885      0.282059
Fe           -0.344647     -0.248831     -0.463270
H            -0.091697     -0.237558     -0.445322
H            -0.390509     -0.076199      0.313818
H             0.107053     -0.076683      0.439964
H             0.401253     -0.226906     -0.298937
O            -0.207694     -0.253751      0.396151
O            -0.281505     -0.085907     -0.354745
O             0.192152     -0.059487     -0.419026
O             0.298234     -0.236179      0.356866
O            -0.054772     -0.247845     -0.350657
O            -0.443069     -0.100050      0.402002
O             0.064600     -0.082770      0.342232
O             0.457875     -0.217983     -0.383090
Fe            0.143890      0.098291     -0.281594
Fe            0.358297      0.240115      0.456372
Fe           -0.142538      0.248388      0.281880
Fe           -0.344992      0.076028     -0.468005
H            -0.077607      0.080897     -0.449759
H            -0.406190      0.230625      0.313850
H             0.099110      0.255322      0.445605
H             0.427542      0.058753     -0.312243
O            -0.193328      0.084159      0.394497
O            -0.309614      0.245966     -0.325574
O             0.206079      0.261359     -0.424538
O             0.311521      0.068596      0.337500
O            -0.048297      0.083540     -0.349743
O            -0.440801      0.260249      0.406324
O             0.051119      0.242904      0.353141
O             0.441230      0.064047     -0.416209
Fe            0.140385      0.410943     -0.296264
Lu            0.373157     -0.410825      0.494522
Fe           -0.146758     -0.424519      0.278813
Fe           -0.343978      0.408674     -0.467223
H            -0.088029      0.449792     -0.439824
H            -0.406619     -0.425334      0.307450
H             0.083118     -0.426092      0.461862
H             0.406005      0.385383     -0.297468
O            -0.200776      0.416617      0.407947
O            -0.305998     -0.413009     -0.335072
O             0.183004     -0.411662     -0.407045
O             0.296292      0.406853      0.348533
O            -0.065995      0.432731     -0.338903
O            -0.423763     -0.424346      0.410208
O             0.041967     -0.438144      0.362334
O             0.449001      0.395766     -0.390488
data_nwchem_pspw

_audit_creation_date   Wed Aug 28 09:26:08 2024
_audit_creation_method    generated by PSPW module of NWChem


_cell_length_a            10.0667
_cell_length_b             9.1552
_cell_length_c             9.2041
_cell_angle_alpha         90.0000
_cell_angle_beta          90.0000
_cell_angle_gamma         90.0000

_symmetry_space_group_name_H-M     P1  

loop_
_atom_site_type_symbol
_atom_site_fract_x
_atom_site_fract_y
_atom_site_fract_z
Fe            0.147864     -0.235183      0.220302
Fe            0.362328     -0.090285     -0.013593
Fe           -0.159069     -0.092641     -0.235416
Fe           -0.343013     -0.238504      0.028662
H            -0.084481     -0.264540      0.054284
H            -0.423413     -0.085857     -0.219713
H             0.088434     -0.115847     -0.038583
H             0.429801     -0.247548      0.208619
O            -0.201062     -0.248422     -0.105940
O            -0.315331     -0.068338      0.167430
O             0.203959     -0.083762      0.103345
O             0.310967     -0.252725     -0.151652
O            -0.047811     -0.259169      0.152035
O            -0.445178     -0.087607     -0.117799
O             0.060147     -0.114861     -0.140046
O             0.455759     -0.246625      0.107275
Lu            0.125014      0.092165      0.276563
Fe            0.370597      0.248772     -0.008312
Fe           -0.167709      0.243293     -0.234514
Fe           -0.351091      0.080519      0.016835
H            -0.082803      0.089057      0.043608
H            -0.442308      0.223147     -0.207658
H             0.093296      0.242306     -0.036503
H             0.444877      0.072891      0.220075
O            -0.206934      0.079759     -0.106491
O            -0.297930      0.254605      0.127983
O             0.207036      0.248175      0.102425
O             0.309824      0.094141     -0.133209
O            -0.062771      0.081630      0.146452
O            -0.450214      0.239088     -0.104660
O             0.060965      0.239217     -0.136081
O             0.464591      0.084309      0.114071
Fe            0.148654      0.419728      0.220420
Fe            0.358021     -0.408331     -0.005320
Fe           -0.143436     -0.423574     -0.248420
Fe           -0.353662      0.429243      0.006718
H            -0.073396      0.378758      0.042743
H            -0.431535     -0.387376     -0.203371
H             0.043947     -0.470021     -0.050225
H             0.439259      0.403484      0.200666
O            -0.190825      0.416809     -0.107842
O            -0.300855     -0.413736      0.138321
O             0.207779     -0.406536      0.114343
O             0.309170      0.420460     -0.137166
O            -0.043197      0.388135      0.141693
O            -0.453738     -0.413715     -0.105459
O             0.051939     -0.444134     -0.149919
O             0.463707      0.427786      0.102262
Fe            0.153655     -0.265491     -0.264268
Fe            0.362964     -0.077906      0.487663
Fe           -0.148522     -0.091970      0.267462
Fe           -0.349888     -0.243630     -0.490194
H            -0.092651     -0.225907     -0.452223
H            -0.425477     -0.081111      0.293249
H             0.100354     -0.119517      0.468166
H             0.425281     -0.263626     -0.307538
O            -0.198132     -0.253824      0.390912
O            -0.303550     -0.076641     -0.351350
O             0.205166     -0.090776     -0.384768
O             0.302449     -0.218394      0.341467
O            -0.051879     -0.253735     -0.361481
O            -0.445186     -0.069032      0.395908
O             0.047498     -0.094850      0.383987
O             0.445840     -0.244014     -0.408475
Fe            0.158534      0.085889     -0.258682
Fe            0.366469      0.245348      0.482583
Fe           -0.155880      0.248621      0.258397
Fe           -0.338137      0.088159     -0.482104
H            -0.071549      0.077374     -0.433781
H            -0.422504      0.266985      0.298644
H             0.070493      0.291080      0.456674
H             0.440596      0.088236     -0.286076
O            -0.181495      0.094214      0.407615
O            -0.310121      0.249207     -0.359303
O             0.210140      0.240378     -0.396264
O             0.322419      0.077681      0.345622
O            -0.049653      0.062599     -0.331867
O            -0.440300      0.261327      0.400143
O             0.038517      0.285702      0.359031
O             0.462352      0.096024     -0.387905
Fe            0.167493      0.398102     -0.263512
Lu            0.332281     -0.423390      0.438543
Fe           -0.136508     -0.426294      0.267797
Fe           -0.353523      0.436079     -0.486589
H            -0.082793      0.407314     -0.469960
H            -0.397008     -0.427903      0.281325
H             0.086653     -0.406350      0.453181
H             0.436231      0.438361     -0.295632
O            -0.213406      0.421335      0.369762
O            -0.307518     -0.401613     -0.354970
O             0.184128     -0.427647     -0.407086
O             0.313185      0.378795      0.326112
O            -0.066821      0.391087     -0.368115
O            -0.447775     -0.405206      0.370150
O             0.066077     -0.393111      0.347748
O             0.450261      0.439297     -0.402348
data_nwchem_pspw

_audit_creation_date   Wed Aug 28 14:57:59 2024
_audit_creation_method    generated by PSPW module of NWChem


_cell_length_a            10.0667
_cell_length_b             9.1552
_cell_length_c             9.2041
_cell_angle_alpha         90.0000
_cell_angle_beta          90.0000
_cell_angle_gamma         90.0000

_symmetry_space_group_name_H-M     P1  

loop_
_atom_site_type_symbol
_atom_site_fract_x
_atom_site_fract_y
_atom_site_fract_z
Fe            0.130988     -0.252190      0.228214
Fe            0.345368     -0.090679     -0.051026
Fe           -0.151520     -0.087369     -0.217284
Fe           -0.358773     -0.257593      0.041355
H            -0.090026     -0.271939      0.049322
H            -0.409977     -0.077276     -0.187268
H             0.080403     -0.088261     -0.062510
H             0.409962     -0.215607      0.196781
O            -0.203117     -0.245992     -0.087153
O            -0.296420     -0.083306      0.152862
O             0.185589     -0.119619      0.068838
O             0.296394     -0.264386     -0.157779
O            -0.062429     -0.275656      0.150015
O            -0.452499     -0.070050     -0.092814
O             0.046113     -0.076268     -0.161614
O             0.445911     -0.243671      0.103852
Lu            0.156837      0.078851      0.184218
Fe            0.361381      0.253193     -0.042354
Fe           -0.150360      0.249100     -0.209691
Fe           -0.364196      0.077662      0.041124
H            -0.102277      0.061965      0.053918
H            -0.412021      0.239891     -0.190717
H             0.078837      0.272027     -0.046400
H             0.408608      0.099430      0.199046
O            -0.207431      0.085214     -0.087294
O            -0.302788      0.249527      0.166652
O             0.192962      0.275580      0.074662
O             0.295407      0.093431     -0.161474
O            -0.061119      0.087899      0.146636
O            -0.451654      0.256188     -0.091952
O             0.046906      0.270646     -0.146263
O             0.427209      0.078926      0.096967
Fe            0.150026      0.411660      0.229049
Fe            0.343880     -0.421836     -0.014803
Fe           -0.149294     -0.408981     -0.213895
Fe           -0.352617      0.417422      0.041145
H            -0.074771      0.409816      0.049337
H            -0.414617     -0.402156     -0.200056
H             0.089715     -0.416061     -0.035303
H             0.432650      0.421150      0.196059
O            -0.191739      0.410657     -0.073868
O            -0.297109     -0.427556      0.172247
O             0.188560     -0.410886      0.115830
O             0.306538      0.409320     -0.164641
O            -0.043935      0.413878      0.151547
O            -0.440488     -0.398908     -0.099479
O             0.055624     -0.422511     -0.134134
O             0.448180      0.427853      0.092389
Fe            0.131328     -0.241685     -0.280469
Fe            0.346065     -0.083941      0.471133
Fe           -0.138525     -0.085250      0.287968
Fe           -0.354193     -0.238266     -0.473758
H            -0.115867     -0.242270     -0.432650
H            -0.414965     -0.083363      0.292537
H             0.092503     -0.078360      0.445737
H             0.409116     -0.225360     -0.296477
O            -0.181905     -0.255939      0.415415
O            -0.311286     -0.071836     -0.349966
O             0.189267     -0.071871     -0.408397
O             0.299890     -0.239510      0.340025
O            -0.066547     -0.250285     -0.340872
O            -0.456807     -0.079990      0.390583
O             0.057086     -0.076120      0.340901
O             0.439384     -0.216529     -0.396612
Fe            0.143391      0.099523     -0.270844
Fe            0.369725      0.256703      0.472355
Fe           -0.135424      0.250142      0.271688
Fe           -0.351584      0.087761     -0.474760
H            -0.103841      0.089522     -0.449051
H            -0.402269      0.266752      0.294268
H             0.098867      0.267528      0.451520
H             0.410596      0.126808     -0.307469
O            -0.201037      0.082394      0.402192
O            -0.310949      0.245587     -0.339241
O             0.208346      0.261324     -0.399030
O             0.310210      0.089069      0.349913
O            -0.072129      0.081227     -0.349669
O            -0.436267      0.252232      0.393293
O             0.068884      0.253591      0.351876
O             0.445697      0.107308     -0.402553
Fe            0.137903      0.414193     -0.272950
Lu            0.358278     -0.425816      0.481883
Fe           -0.132778     -0.434826      0.288643
Fe           -0.345333      0.419304     -0.465117
H            -0.106646      0.419730     -0.442205
H            -0.390066     -0.427222      0.313240
H             0.081049     -0.405480      0.458359
H             0.427402      0.408548     -0.288311
O            -0.195611      0.407085      0.400904
O            -0.286479     -0.408071     -0.345631
O             0.169353     -0.407762     -0.400048
O             0.312681      0.404694      0.341066
O            -0.077985      0.410574     -0.341163
O            -0.437688     -0.416247      0.404281
O             0.063271     -0.405923      0.353064
O             0.468674      0.412446     -0.386676
data_nwchem_pspw

_audit_creation_date   Wed Aug 28 21:41:20 2024
_audit_creation_method    generated by PSPW module of NWChem


_cell_length_a            10.0667
_cell_length_b             9.1552
_cell_length_c             9.2041
_cell_angle_alpha         90.0000
_cell_angle_beta          90.0000
_cell_angle_gamma         90.0000

_symmetry_space_group_name_H-M     P1  

loop_
_atom_site_type_symbol
_atom_site_fract_x
_atom_site_fract_y
_atom_site_fract_z
Fe            0.130969     -0.242621      0.220754
Fe            0.346305     -0.088166     -0.024912
Fe           -0.147733     -0.088250     -0.234938
Fe           -0.354071     -0.239399      0.008398
H            -0.093388     -0.247031      0.039823
H            -0.416568     -0.062996     -0.207444
H             0.082204     -0.062826     -0.050263
H             0.390229     -0.240322      0.186265
O            -0.192329     -0.252625     -0.099827
O            -0.312227     -0.079067      0.152442
O             0.195778     -0.085220      0.116133
O             0.301428     -0.249654     -0.158123
O            -0.077154     -0.258386      0.142762
O            -0.451995     -0.085175     -0.112587
O             0.058759     -0.078687     -0.151880
O             0.437357     -0.257289      0.093244
Lu            0.139034      0.088846      0.261742
Fe            0.352299      0.245910     -0.015846
Fe           -0.143792      0.238749     -0.244813
Fe           -0.359609      0.084048      0.018592
H            -0.100928      0.077078      0.042586
H            -0.399342      0.228022     -0.211618
H             0.069511      0.249762     -0.047111
H             0.412953      0.078409      0.203815
O            -0.190426      0.075150     -0.091304
O            -0.309742      0.253342      0.155128
O             0.187877      0.251469      0.092080
O             0.287961      0.085844     -0.137113
O            -0.057787      0.078419      0.142372
O            -0.438067      0.240772     -0.114154
O             0.055199      0.250084     -0.152616
O             0.443603      0.071110      0.099927
Fe            0.145156      0.422829      0.220112
Fe            0.351683     -0.417491     -0.019822
Fe           -0.139812     -0.416752     -0.229666
Fe           -0.353215      0.419433      0.020213
H            -0.081165      0.416471      0.046489
H            -0.420615     -0.420061     -0.209181
H             0.091656     -0.431115     -0.046477
H             0.421927      0.407454      0.198713
O            -0.194834      0.422066     -0.123056
O            -0.291385     -0.420850      0.140894
O             0.195230     -0.408219      0.091892
O             0.306089      0.423915     -0.150982
O            -0.052194      0.415773      0.147108
O            -0.449363     -0.427703     -0.107533
O             0.056783     -0.421917     -0.144875
O             0.439450      0.414908      0.095422
Fe            0.145766     -0.248948     -0.252490
Fe            0.353416     -0.082563      0.490814
Fe           -0.162338     -0.080897      0.278452
Fe           -0.344055     -0.266006     -0.480878
H            -0.115969     -0.270858     -0.437028
H            -0.407100     -0.076802      0.290582
H             0.080233     -0.127446      0.450865
H             0.432583     -0.269696     -0.289626
O            -0.189998     -0.251831      0.409968
O            -0.286798     -0.088343     -0.376954
O             0.191258     -0.086164     -0.397943
O             0.283607     -0.221420      0.349136
O            -0.065373     -0.262941     -0.344415
O            -0.446314     -0.099852      0.387255
O             0.042000     -0.101296      0.356808
O             0.456239     -0.257767     -0.391348
Fe            0.151067      0.092806     -0.279286
Fe            0.372307      0.244875      0.473693
Fe           -0.148183      0.248854      0.267066
Fe           -0.358444      0.065248     -0.489610
H            -0.061890      0.074116     -0.461955
H            -0.408679      0.250232      0.293218
H             0.072945      0.275891      0.470137
H             0.431810      0.091466     -0.285597
O            -0.195252      0.083348      0.404757
O            -0.298202      0.234247     -0.349625
O             0.198269      0.252104     -0.415784
O             0.339957      0.077735      0.346449
O            -0.039974      0.077200     -0.360065
O            -0.430577      0.243074      0.396903
O             0.039925      0.251858      0.373136
O             0.456512      0.078303     -0.384867
Fe            0.153433      0.416215     -0.269078
Lu            0.355937     -0.403059      0.462166
Fe           -0.147769     -0.410495      0.273582
Fe           -0.336057      0.413099     -0.473191
H            -0.092566      0.434968     -0.458487
H            -0.407966     -0.402589      0.278970
H             0.072026     -0.407625      0.452609
H             0.444862      0.425068     -0.310444
O            -0.185482      0.426464      0.403508
O            -0.302585     -0.424357     -0.339839
O             0.188266     -0.414058     -0.399440
O             0.296037      0.395834      0.338701
O            -0.054567      0.424515     -0.358518
O            -0.435181     -0.407016      0.379268
O             0.055299     -0.413360      0.347051
O             0.464707      0.397676     -0.409061
data_nwchem_pspw

_audit_creation_date   Thu Aug 29 04:26:54 2024
_audit_creation_method    generated by PSPW module of NWChem


_cell_length_a            10.0667
_cell_length_b             9.1552
_cell_length_c             9.2041
_cell_angle_alpha         90.0000
_cell_angle_beta          90.0000
_cell_angle_gamma         90.0000

_symmetry_space_group_name_H-M     P1  

loop_
_atom_site_type_symbol
_atom_site_fract_x
_atom_site_fract_y
_atom_site_fract_z
Fe            0.140922     -0.249700      0.216286
Fe            0.361294     -0.088586     -0.035797
Fe           -0.144088     -0.073897     -0.220406
Fe           -0.350391     -0.252412      0.019471
H            -0.089935     -0.250885      0.051575
H            -0.412337     -0.070852     -0.209749
H             0.078796     -0.080240     -0.045498
H             0.429094     -0.252767      0.192839
O            -0.186812     -0.256431     -0.082946
O            -0.307699     -0.081246      0.158790
O             0.215694     -0.092696      0.086253
O             0.320489     -0.259303     -0.153730
O            -0.051381     -0.247774      0.150666
O            -0.451516     -0.075765     -0.112517
O             0.051277     -0.082786     -0.145175
O             0.458620     -0.259355      0.093334
Lu            0.146083      0.078069      0.210164
Fe            0.358214      0.248887     -0.031274
Fe           -0.148955      0.253205     -0.229149
Fe           -0.363984      0.090096      0.027228
H            -0.096355      0.124779      0.063774
H            -0.416237      0.266279     -0.194719
H             0.066515      0.244593     -0.050075
H             0.434220      0.084538      0.208240
O            -0.205102      0.090778     -0.093787
O            -0.308561      0.258231      0.165218
O             0.184185      0.268406      0.079376
O             0.308214      0.072145     -0.160948
O            -0.070712      0.098178      0.159452
O            -0.440482      0.264401     -0.092050
O             0.042292      0.233940     -0.151862
O             0.440119      0.079218      0.104066
Fe            0.140154      0.413148      0.223333
Fe            0.357661     -0.422933     -0.020311
Fe           -0.145909     -0.420540     -0.217849
Fe           -0.351457      0.421218      0.041087
H            -0.084112      0.421712      0.048109
H            -0.419645     -0.417051     -0.201313
H             0.081494     -0.427332     -0.027647
H             0.416359      0.415190      0.204000
O            -0.204614      0.425807     -0.095813
O            -0.303403     -0.413502      0.160355
O             0.211111     -0.423810      0.106862
O             0.310076      0.413897     -0.156126
O            -0.051890      0.415938      0.148782
O            -0.434496     -0.412611     -0.098506
O             0.059651     -0.413944     -0.128681
O             0.454315      0.422362      0.104312
Fe            0.145316     -0.251199     -0.250669
Fe            0.357017     -0.092487      0.484426
Fe           -0.145710     -0.075735      0.285475
Fe           -0.353794     -0.242850     -0.473424
H            -0.090967     -0.239000     -0.453942
H            -0.399936     -0.087190      0.287640
H             0.082050     -0.101052      0.455182
H             0.421353     -0.260719     -0.294547
O            -0.191492     -0.248632      0.395645
O            -0.299154     -0.074738     -0.335426
O             0.199909     -0.083087     -0.400653
O             0.302214     -0.225841      0.341008
O            -0.065830     -0.235543     -0.353926
O            -0.446415     -0.093984      0.384613
O             0.048925     -0.083879      0.357833
O             0.443799     -0.257713     -0.401245
Fe            0.154927      0.082550     -0.279241
Fe            0.361759      0.245351      0.473781
Fe           -0.142948      0.261217      0.286430
Fe           -0.353352      0.079267     -0.466602
H            -0.090902      0.093101     -0.450007
H            -0.410044      0.254800      0.301718
H             0.090211      0.252923      0.449954
H             0.411785      0.061354     -0.307229
O            -0.209610      0.087368      0.406398
O            -0.318179      0.246307     -0.333195
O             0.207101      0.252148     -0.402864
O             0.305019      0.063426      0.365768
O            -0.048511      0.096123     -0.356703
O            -0.444151      0.248420      0.401980
O             0.047313      0.252787      0.355633
O             0.454870      0.064424     -0.400880
Fe            0.146005      0.408919     -0.270323
Lu            0.344392     -0.417151      0.463275
Fe           -0.143882     -0.414906      0.268134
Fe           -0.358040      0.421419     -0.470252
H            -0.081768      0.429574     -0.442740
H            -0.425118     -0.420488      0.296327
H             0.078862     -0.399689      0.457813
H             0.408780      0.418494     -0.298335
O            -0.189024      0.425762      0.410687
O            -0.297074     -0.411579     -0.354458
O             0.182249     -0.416206     -0.387535
O             0.312196      0.389709      0.321526
O            -0.048290      0.417826     -0.342947
O            -0.456674     -0.407002      0.394410
O             0.057852     -0.403595      0.354816
O             0.447397      0.405250     -0.397110
data_nwchem_pspw

_audit_creation_date   Thu Aug 29 09:15:00 2024
_audit_creation_method    generated by PSPW module of NWChem


_cell_length_a            10.0667
_cell_length_b             9.1552
_cell_length_c             9.2041
_cell_angle_alpha         90.0000
_cell_angle_beta          90.0000
_cell_angle_gamma         90.0000

_symmetry_space_group_name_H-M     P1  

loop_
_atom_site_type_symbol
_atom_site_fract_x
_atom_site_fract_y
_atom_site_fract_z
Fe            0.149937     -0.256396      0.224248
Fe            0.356651     -0.086490     -0.031163
Fe           -0.151294     -0.072869     -0.215514
Fe           -0.358348     -0.256765      0.008482
H            -0.083901     -0.255187      0.038582
H            -0.419065     -0.077667     -0.197820
H             0.081127     -0.072653     -0.047174
H             0.406894     -0.244160      0.193070
O            -0.189798     -0.254388     -0.088653
O            -0.306958     -0.084804      0.158418
O             0.198863     -0.092619      0.097350
O             0.294809     -0.247396     -0.165869
O            -0.046757     -0.266795      0.136937
O            -0.450271     -0.092721     -0.099492
O             0.044339     -0.075668     -0.143739
O             0.455531     -0.238448      0.101026
Lu            0.153970      0.084134      0.237177
Fe            0.334724      0.260876     -0.028967
Fe           -0.160395      0.252209     -0.214123
Fe           -0.366678      0.081952      0.030959
H            -0.093894      0.054108      0.040658
H            -0.445120      0.246778     -0.198203
H             0.092434      0.264749     -0.058486
H             0.425714      0.076201      0.216771
O            -0.213153      0.077373     -0.088412
O            -0.310413      0.240955      0.154874
O             0.180780      0.263282      0.088458
O             0.304174      0.087980     -0.158948
O            -0.062708      0.069328      0.140824
O            -0.469707      0.241288     -0.096992
O             0.042134      0.255529     -0.149498
O             0.441636      0.080164      0.114175
Fe            0.149403      0.423209      0.231827
Fe            0.353573     -0.412359     -0.036048
Fe           -0.158148     -0.417845     -0.235465
Fe           -0.362955      0.409167      0.018651
H            -0.045625      0.397990      0.048806
H            -0.422293     -0.426807     -0.212127
H             0.080745     -0.428041     -0.047120
H             0.395276      0.398884      0.193672
O            -0.212686      0.408370     -0.106522
O            -0.290118     -0.426849      0.135046
O             0.203719     -0.413658      0.093118
O             0.290942      0.428398     -0.162083
O            -0.044817      0.416088      0.149609
O            -0.458938     -0.421233     -0.113904
O             0.054267     -0.421197     -0.147977
O             0.438121      0.415618      0.098117
Fe            0.138858     -0.246553     -0.269071
Fe            0.357641     -0.081689      0.481280
Fe           -0.149337     -0.087712      0.263559
Fe           -0.325549     -0.245620     -0.476496
H            -0.071070     -0.262698     -0.448662
H            -0.413986     -0.105155      0.300240
H             0.086787     -0.114377      0.449805
H             0.429320     -0.246077     -0.307689
O            -0.176155     -0.256379      0.396357
O            -0.290758     -0.076870     -0.350795
O             0.180363     -0.084476     -0.408548
O             0.311952     -0.235314      0.336674
O            -0.059297     -0.256429     -0.346132
O            -0.441537     -0.100271      0.402577
O             0.050624     -0.087130      0.353650
O             0.454390     -0.235087     -0.403670
Fe            0.142958      0.090131     -0.270117
Fe            0.358044      0.249150      0.485125
Fe           -0.151230      0.239285      0.277211
Fe           -0.350230      0.082011     -0.476385
H            -0.077181      0.082407     -0.443642
H            -0.407037      0.256250      0.310363
H             0.065172      0.248055      0.462640
H             0.400583      0.083506     -0.299166
O            -0.200032      0.081371      0.396644
O            -0.310328      0.243335     -0.341454
O             0.197859      0.259227     -0.409973
O             0.317320      0.077003      0.377939
O            -0.053574      0.094232     -0.343061
O            -0.443795      0.257258      0.409214
O             0.042809      0.257175      0.360647
O             0.451126      0.077794     -0.390719
Fe            0.133806      0.417307     -0.284431
Lu            0.366579     -0.419335      0.479696
Fe           -0.146166     -0.412010      0.264757
Fe           -0.340625      0.416175     -0.478859
H            -0.076502      0.425318     -0.474651
H            -0.401439     -0.430643      0.285344
H             0.092559     -0.400812      0.454829
H             0.419506      0.415050     -0.281822
O            -0.204443      0.413823      0.387326
O            -0.310678     -0.408644     -0.355001
O             0.180792     -0.416549     -0.414408
O             0.321098      0.404511      0.337297
O            -0.057595      0.429427     -0.372150
O            -0.426081     -0.397627      0.381499
O             0.057078     -0.414864      0.353232
O             0.447365      0.419221     -0.383612
data_nwchem_pspw

_audit_creation_date   Thu Aug 29 13:13:10 2024
_audit_creation_method    generated by PSPW module of NWChem


_cell_length_a            10.0667
_cell_length_b             9.1552
_cell_length_c             9.2041
_cell_angle_alpha         90.0000
_cell_angle_beta          90.0000
_cell_angle_gamma         90.0000

_symmetry_space_group_name_H-M     P1  

loop_
_atom_site_type_symbol
_atom_site_fract_x
_atom_site_fract_y
_atom_site_fract_z
Fe            0.139178     -0.249234      0.215815
Fe            0.365142     -0.082872     -0.020205
Fe           -0.125381     -0.073819     -0.227997
Fe           -0.334612     -0.251701      0.019739
H            -0.095907     -0.243653      0.057968
H            -0.406747     -0.085470     -0.202409
H             0.080167     -0.089100     -0.047805
H             0.421708     -0.244156      0.205104
O            -0.181481     -0.228086     -0.097605
O            -0.294865     -0.084918      0.145246
O             0.203701     -0.084180      0.089277
O             0.312097     -0.248357     -0.150062
O            -0.060236     -0.248580      0.157510
O            -0.441563     -0.086500     -0.103830
O             0.057203     -0.089564     -0.149809
O             0.457368     -0.251478      0.107248
Lu            0.141843      0.082496      0.240220
Fe            0.353284      0.259254     -0.015714
Fe           -0.140867      0.236646     -0.219983
Fe           -0.366441      0.085985      0.016277
H            -0.111096      0.064663      0.062414
H            -0.421960      0.235073     -0.206749
H             0.090760      0.245192     -0.040758
H             0.420649      0.082683      0.203273
O            -0.199791      0.085252     -0.094679
O            -0.298507      0.246604      0.138637
O             0.189855      0.263651      0.084726
O             0.303580      0.080056     -0.144033
O            -0.063360      0.082094      0.149944
O            -0.451123      0.240798     -0.105929
O             0.053946      0.237899     -0.140232
O             0.449591      0.104313      0.105187
Fe            0.142255      0.422476      0.215640
Fe            0.359595     -0.407268     -0.023975
Fe           -0.139229     -0.425817     -0.229631
Fe           -0.342014      0.418395      0.027098
H            -0.093098      0.407995      0.041086
H            -0.445220     -0.395846     -0.196821
H             0.058838     -0.381016     -0.035908
H             0.407513      0.406829      0.193561
O            -0.187651      0.413445     -0.100815
O            -0.297744     -0.417518      0.144562
O             0.209727     -0.412577      0.104790
O             0.309258      0.421925     -0.158614
O            -0.053879      0.423653      0.139559
O            -0.443883     -0.418831     -0.094801
O             0.055926     -0.407067     -0.136178
O             0.446770      0.435126      0.102305
Fe            0.150731     -0.246255     -0.271857
Fe            0.358158     -0.081113      0.473472
Fe           -0.152351     -0.089868      0.280467
Fe           -0.345872     -0.239844     -0.473343
H            -0.073121     -0.244658     -0.458814
H            -0.424140     -0.090694      0.297503
H             0.071653     -0.110524      0.461817
H             0.407384     -0.239490     -0.302114
O            -0.208825     -0.254988      0.388238
O            -0.286983     -0.085245     -0.341168
O             0.214221     -0.091810     -0.393631
O             0.299015     -0.224546      0.326897
O            -0.054237     -0.260908     -0.357708
O            -0.447786     -0.079167      0.398212
O             0.037533     -0.093271      0.365308
O             0.443531     -0.250229     -0.401445
Fe            0.150064      0.079030     -0.279930
Fe            0.360979      0.241212      0.484735
Fe           -0.155723      0.252885      0.275085
Fe           -0.342768      0.074249     -0.466484
H            -0.071428      0.076439     -0.481842
H            -0.405661      0.249916      0.303728
H             0.064065      0.259116      0.457729
H             0.408960      0.072788     -0.296596
O            -0.190286      0.094343      0.404730
O            -0.295877      0.245021     -0.345789
O             0.209306      0.252826     -0.391682
O             0.324776      0.080355      0.353789
O            -0.035710      0.068598     -0.381181
O            -0.439670      0.247470      0.401851
O             0.035478      0.255300      0.358504
O             0.455165      0.076628     -0.390471
Fe            0.147244      0.412096     -0.259200
Lu            0.326924     -0.415393      0.451210
Fe           -0.151661     -0.424525      0.278199
Fe           -0.357883      0.427399     -0.476391
H            -0.073298      0.407953     -0.444169
H            -0.390546     -0.410915      0.308283
H             0.081796     -0.418274      0.471923
H             0.392737      0.421011     -0.310817
O            -0.200819      0.415005      0.405316
O            -0.292220     -0.410315     -0.353332
O             0.180491     -0.417360     -0.385696
O             0.287523      0.395487      0.341965
O            -0.053839      0.391317     -0.342917
O            -0.445540     -0.424682      0.392218
O             0.056328     -0.418928      0.368523
O             0.437163      0.416174     -0.406030
data_nwchem_pspw

_audit_creation_date   Thu Aug 29 17:58:14 2024
_audit_creation_method    generated by PSPW module of NWChem


_cell_length_a            10.0667
_cell_length_b             9.1552
_cell_length_c             9.2041
_cell_angle_alpha         90.0000
_cell_angle_beta          90.0000
_cell_angle_gamma         90.0000

_symmetry_space_group_name_H-M     P1  

loop_
_atom_site_type_symbol
_atom_site_fract_x
_atom_site_fract_y
_atom_site_fract_z
Fe            0.129974     -0.252908      0.237556
Fe            0.341026     -0.105186     -0.029260
Fe           -0.150431     -0.081585     -0.222415
Fe           -0.357239     -0.237404      0.041037
H            -0.084891     -0.264156      0.056175
H            -0.412274     -0.080413     -0.201830
H             0.061303     -0.114580     -0.062859
H             0.411369     -0.256276      0.205586
O            -0.188193     -0.233552     -0.079646
O            -0.318912     -0.063020      0.149756
O             0.173434     -0.113125      0.077122
O             0.292226     -0.265663     -0.158616
O            -0.060803     -0.239930      0.156302
O            -0.451144     -0.086441     -0.104888
O             0.045564     -0.089818     -0.165603
O             0.447081     -0.256455      0.106068
Lu            0.154271      0.079053      0.202769
Fe            0.342152      0.248563     -0.040109
Fe           -0.154864      0.257554     -0.222680
Fe           -0.366830      0.087203      0.010830
H            -0.098438      0.059921      0.038211
H            -0.420847      0.253240     -0.204200
H             0.095247      0.257956     -0.048483
H             0.393259      0.050817      0.199275
O            -0.200650      0.077656     -0.108586
O            -0.309916      0.250552      0.162870
O             0.186275      0.277879      0.081974
O             0.310078      0.070403     -0.157962
O            -0.065161      0.082770      0.134025
O            -0.457278      0.246611     -0.103913
O             0.057307      0.250403     -0.148037
O             0.410869      0.068650      0.097179
Fe            0.155433      0.420307      0.225220
Fe            0.354535     -0.415188     -0.032107
Fe           -0.143055     -0.413197     -0.219498
Fe           -0.369159      0.410372      0.018633
H            -0.066050      0.409808      0.054375
H            -0.397496     -0.392506     -0.199494
H             0.067558     -0.432546     -0.033335
H             0.414211      0.422285      0.181894
O            -0.208286      0.400548     -0.085573
O            -0.310688     -0.403907      0.167187
O             0.203948     -0.419948      0.097357
O             0.301222      0.427799     -0.168344
O            -0.043842      0.437970      0.154166
O            -0.445326     -0.409144     -0.106897
O             0.044092     -0.424360     -0.134530
O             0.450657      0.418328      0.084809
Fe            0.135296     -0.252685     -0.293221
Fe            0.353943     -0.088459      0.484376
Fe           -0.157695     -0.074882      0.269214
Fe           -0.338100     -0.242715     -0.469553
H            -0.102942     -0.254631     -0.458927
H            -0.446192     -0.111647      0.298912
H             0.078248     -0.057163      0.455186
H             0.395512     -0.237496     -0.281634
O            -0.183768     -0.255685      0.416945
O            -0.310410     -0.069659     -0.347213
O             0.205430     -0.093888     -0.403043
O             0.306289     -0.244567      0.359701
O            -0.062059     -0.248983     -0.357685
O            -0.448174     -0.086803      0.400091
O             0.063011     -0.084215      0.355102
O             0.442281     -0.226888     -0.377399
Fe            0.156035      0.072856     -0.283331
Fe            0.353985      0.249253      0.479147
Fe           -0.150612      0.245805      0.258537
Fe           -0.348140      0.098935     -0.487810
H            -0.068091      0.115379     -0.446599
H            -0.407164      0.271992      0.299488
H             0.076123      0.254912      0.439545
H             0.442718      0.072728     -0.303681
O            -0.199240      0.084359      0.402885
O            -0.306082      0.243834     -0.340430
O             0.197993      0.244305     -0.396173
O             0.305965      0.063177      0.360723
O            -0.049203      0.100721     -0.345456
O            -0.430418      0.272358      0.404516
O             0.048371      0.248918      0.339450
O             0.447145      0.076347     -0.409108
Fe            0.129815      0.419890     -0.263144
Lu            0.373552     -0.418303      0.495983
Fe           -0.142307     -0.414017      0.292466
Fe           -0.336748      0.418348     -0.471281
H            -0.093807      0.409153     -0.452275
H            -0.373534     -0.411650      0.290103
H             0.087624     -0.396612      0.465125
H             0.401046      0.416709     -0.274630
O            -0.188285      0.410752      0.403229
O            -0.305959     -0.413148     -0.320762
O             0.182438     -0.418694     -0.399814
O             0.313658      0.403325      0.341397
O            -0.056349      0.418871     -0.355650
O            -0.426649     -0.408399      0.397755
O             0.064127     -0.419588      0.361680
O             0.449221      0.404513     -0.370068
data_nwchem_pspw

_audit_creation_date   Thu Aug 29 22:56:07 2024
_audit_creation_method    generated by PSPW module of NWChem


_cell_length_a            10.0667
_cell_length_b             9.1552
_cell_length_c             9.2041
_cell_angle_alpha         90.0000
_cell_angle_beta          90.0000
_cell_angle_gamma         90.0000

_symmetry_space_group_name_H-M     P1  

loop_
_atom_site_type_symbol
_atom_site_fract_x
_atom_site_fract_y
_atom_site_fract_z
Fe            0.135936     -0.233790      0.204144
Fe            0.359828     -0.090694     -0.012886
Fe           -0.140824     -0.066396     -0.235777
Fe           -0.345563     -0.253220      0.036364
H            -0.081173     -0.268364      0.039273
H            -0.419287     -0.096383     -0.192793
H             0.082728     -0.093768     -0.048550
H             0.403176     -0.230314      0.201077
O            -0.192236     -0.237755     -0.092810
O            -0.299242     -0.090471      0.151062
O             0.190360     -0.083641      0.086681
O             0.298896     -0.242134     -0.150073
O            -0.059533     -0.271457      0.141214
O            -0.450804     -0.082335     -0.094450
O             0.047176     -0.077121     -0.146720
O             0.455458     -0.256044      0.113101
Lu            0.145595      0.092632      0.264495
Fe            0.365589      0.243639     -0.021494
Fe           -0.141907      0.247560     -0.234824
Fe           -0.357027      0.089876      0.015370
H            -0.086664      0.059009      0.057651
H            -0.428452      0.244391     -0.215796
H             0.088693      0.237839     -0.045826
H             0.414916      0.080947      0.213679
O            -0.197613      0.091961     -0.100710
O            -0.301272      0.242480      0.147957
O             0.209364      0.247090      0.095640
O             0.305109      0.079955     -0.143983
O            -0.047627      0.072629      0.152742
O            -0.446348      0.245476     -0.113072
O             0.055588      0.240659     -0.146065
O             0.436315      0.077390      0.112171
Fe            0.159983      0.417426      0.199954
Fe            0.365110     -0.404032     -0.047026
Fe           -0.151270     -0.416159     -0.227823
Fe           -0.341071      0.424982      0.018450
H            -0.097771      0.379735      0.056592
H            -0.416677     -0.378979     -0.206392
H             0.060053     -0.410268     -0.047149
H             0.415859      0.412765      0.193949
O            -0.195026      0.417310     -0.110143
O            -0.303270     -0.424513      0.156128
O             0.210422     -0.410482      0.091919
O             0.312016      0.421044     -0.146997
O            -0.051664      0.407184      0.142352
O            -0.433034     -0.398915     -0.105176
O             0.039196     -0.422062     -0.147742
O             0.459067      0.412059      0.098111
Fe            0.142199     -0.242264     -0.277774
Fe            0.361454     -0.085922      0.488275
Fe           -0.157823     -0.093002      0.287658
Fe           -0.355676     -0.271188     -0.490806
H            -0.073958     -0.261299     -0.452320
H            -0.412542     -0.089477      0.306014
H             0.057908     -0.123878      0.453490
H             0.408328     -0.234164     -0.304122
O            -0.194499     -0.255148      0.401635
O            -0.302339     -0.086515     -0.344376
O             0.215303     -0.076847     -0.384429
O             0.301977     -0.218395      0.325405
O            -0.060989     -0.237818     -0.354396
O            -0.441665     -0.102408      0.406432
O             0.045665     -0.089548      0.358126
O             0.436345     -0.252093     -0.402807
Fe            0.151457      0.082412     -0.257954
Fe            0.369772      0.245209     -0.498527
Fe           -0.143743      0.248205      0.280833
Fe           -0.354682      0.071359     -0.466432
H            -0.113605      0.090500     -0.452651
H            -0.412372      0.224744      0.286193
H             0.089469      0.271572      0.464807
H             0.433692      0.083192     -0.274038
O            -0.204513      0.082626      0.400825
O            -0.291267      0.241696     -0.356619
O             0.205198      0.251898     -0.388335
O             0.326036      0.080261      0.371767
O            -0.049260      0.084762     -0.373058
O            -0.437289      0.233346      0.387611
O             0.041349      0.281561      0.373755
O             0.460363      0.076443     -0.376459
Fe            0.154070      0.423883     -0.255889
Lu            0.324383     -0.412606      0.432953
Fe           -0.136864     -0.433264      0.277371
Fe           -0.369990      0.410470     -0.477477
H            -0.080613      0.418287     -0.441795
H            -0.419615     -0.426609      0.298591
H             0.081320     -0.396860      0.452284
H             0.402696      0.412320     -0.300594
O            -0.201820      0.422139      0.405124
O            -0.298404     -0.414053     -0.370678
O             0.183918     -0.415126     -0.393033
O             0.311224      0.378617      0.329400
O            -0.046357      0.419353     -0.345115
O            -0.456739     -0.435916      0.393851
O             0.076897     -0.412131      0.348991
O             0.439780      0.414470     -0.400669
data_nwchem_pspw

_audit_creation_date   Fri Aug 30 06:42:11 2024
_audit_creation_method    generated by PSPW module of NWChem


_cell_length_a            10.0667
_cell_length_b             9.1552
_cell_length_c             9.2041
_cell_angle_alpha         90.0000
_cell_angle_beta          90.0000
_cell_angle_gamma         90.0000

_symmetry_space_group_name_H-M     P1  

loop_
_atom_site_type_symbol
_atom_site_fract_x
_atom_site_fract_y
_atom_site_fract_z
Fe            0.143610     -0.263572      0.232644
Fe            0.357133     -0.099765     -0.028658
Fe           -0.152506     -0.075391     -0.217249
Fe           -0.351893     -0.244505      0.028752
H            -0.084852     -0.257154      0.045808
H            -0.393392     -0.061750     -0.189682
H             0.074254     -0.130802     -0.045009
H             0.401571     -0.241004      0.199347
O            -0.200168     -0.261528     -0.093002
O            -0.316815     -0.078356      0.155073
O             0.186831     -0.120957      0.076760
O             0.293330     -0.255049     -0.169993
O            -0.062382     -0.256895      0.147663
O            -0.432099     -0.088480     -0.096589
O             0.041219     -0.084847     -0.133567
O             0.451853     -0.244798      0.105951
Lu            0.144743      0.079835      0.175793
Fe            0.361208      0.265106     -0.013774
Fe           -0.143700      0.262467     -0.228861
Fe           -0.350914      0.085750      0.034749
H            -0.107579      0.112337      0.035988
H            -0.429991      0.252044     -0.199025
H             0.091731      0.265179     -0.056325
H             0.420107      0.086835      0.212618
O            -0.205188      0.087209     -0.094636
O            -0.308770      0.251040      0.163555
O             0.195097      0.276819      0.086873
O             0.294972      0.077139     -0.128117
O            -0.064762      0.092318      0.128354
O            -0.456193      0.225198     -0.101332
O             0.043830      0.262626     -0.146898
O             0.423286      0.088381      0.107597
Fe            0.152211      0.418264      0.238970
Fe            0.339507     -0.415037     -0.028326
Fe           -0.156751     -0.428507     -0.223209
Fe           -0.349702      0.412679      0.022124
H            -0.091816      0.421463      0.038871
H            -0.410165     -0.420772     -0.206436
H             0.078891     -0.411809     -0.041183
H             0.416889      0.418071      0.200780
O            -0.195576      0.409396     -0.088797
O            -0.286995     -0.417526      0.150759
O             0.195747     -0.424543      0.108572
O             0.305869      0.414708     -0.164132
O            -0.057325      0.421603      0.136022
O            -0.441105     -0.414225     -0.107722
O             0.051909     -0.415999     -0.141575
O             0.455205      0.429368      0.105391
Fe            0.136701     -0.255174     -0.284991
Fe            0.349310     -0.082533      0.487334
Fe           -0.151443     -0.063942      0.263106
Fe           -0.343285     -0.243796     -0.475606
H            -0.077397     -0.254100     -0.444206
H            -0.431690     -0.079519      0.304433
H             0.055413     -0.040962      0.442924
H             0.408298     -0.231278     -0.284231
O            -0.200355     -0.241301      0.391305
O            -0.310703     -0.082955     -0.342104
O             0.183402     -0.096101     -0.405335
O             0.306949     -0.238581      0.349186
O            -0.060685     -0.246847     -0.340887
O            -0.446349     -0.079706      0.407804
O             0.031036     -0.075849      0.349063
O             0.452081     -0.224331     -0.379989
Fe            0.156044      0.076777     -0.266898
Fe            0.347797      0.231271      0.464510
Fe           -0.151240      0.256520      0.281673
Fe           -0.359044      0.090738     -0.474928
H            -0.075468      0.077786     -0.440173
H            -0.416493      0.252730      0.301684
H             0.101748      0.242787      0.445370
H             0.402921      0.076077     -0.293306
O            -0.199460      0.090603      0.403805
O            -0.306199      0.241803     -0.343128
O             0.183285      0.249615     -0.414778
O             0.294580      0.062923      0.345304
O            -0.042362      0.076419     -0.342696
O            -0.450609      0.252872      0.400162
O             0.053622      0.251225      0.349610
O             0.427238      0.072933     -0.395054
Fe            0.140393      0.412886     -0.272209
Lu            0.376420     -0.412881     -0.495380
Fe           -0.140981     -0.418645      0.274248
Fe           -0.351795      0.419283     -0.471472
H            -0.072583      0.438415     -0.447368
H            -0.388697     -0.408472      0.300942
H             0.104632     -0.413136      0.468537
H             0.433204      0.395242     -0.293243
O            -0.211336      0.427294      0.406601
O            -0.298006     -0.420677     -0.348136
O             0.177930     -0.426140     -0.410311
O             0.306751      0.403771      0.357222
O            -0.042411      0.415428     -0.351221
O            -0.440392     -0.404767      0.392276
O             0.061449     -0.422310      0.365124
O             0.453761      0.401449     -0.395151
data_nwchem_pspw

_audit_creation_date   Fri Aug 30 11:34:15 2024
_audit_creation_method    generated by PSPW module of NWChem


_cell_length_a            10.0667
_cell_length_b             9.1552
_cell_length_c             9.2041
_cell_angle_alpha         90.0000
_cell_angle_beta          90.0000
_cell_angle_gamma         90.0000

_symmetry_space_group_name_H-M     P1  

loop_
_atom_site_type_symbol
_atom_site_fract_x
_atom_site_fract_y
_atom_site_fract_z
Fe            0.134772     -0.239864      0.204636
Fe            0.350670     -0.078279     -0.018892
Fe           -0.139774     -0.083185     -0.221627
Fe           -0.358954     -0.262227      0.016567
H            -0.087106     -0.244265      0.026617
H            -0.377397     -0.078377     -0.192628
H             0.051169     -0.074194     -0.041421
H             0.404756     -0.232043      0.187620
O            -0.186541     -0.250332     -0.083649
O            -0.306283     -0.096981      0.160822
O             0.197947     -0.070943      0.108307
O             0.283284     -0.239354     -0.141093
O            -0.043288     -0.228840      0.127123
O            -0.432535     -0.088263     -0.106105
O             0.041171     -0.071248     -0.145229
O             0.442864     -0.262839      0.092965
Lu            0.159251      0.079352      0.274682
Fe            0.349599      0.247840     -0.017566
Fe           -0.141462      0.239948     -0.228806
Fe           -0.349998      0.084525      0.020087
H            -0.082969      0.126839      0.048574
H            -0.416758      0.238833     -0.218721
H             0.064586      0.233780     -0.052873
H             0.430699      0.063240      0.209053
O            -0.212039      0.085094     -0.111913
O            -0.297758      0.245456      0.152529
O             0.208647      0.248846      0.116927
O             0.302894      0.092975     -0.153084
O            -0.049662      0.102250      0.142896
O            -0.454345      0.240994     -0.121533
O             0.053000      0.245460     -0.154975
O             0.448021      0.079571      0.105776
Fe            0.136246      0.412953      0.218073
Fe            0.346069     -0.404181     -0.031987
Fe           -0.151840     -0.424517     -0.214551
Fe           -0.355247      0.405917      0.025525
H            -0.087469      0.396445      0.037865
H            -0.442508     -0.392125     -0.210497
H             0.081345     -0.415716     -0.053632
H             0.433611      0.400716      0.194546
O            -0.196237      0.412715     -0.100329
O            -0.310051     -0.423839      0.146764
O             0.200996     -0.420215      0.099530
O             0.294979      0.410957     -0.145273
O            -0.052889      0.420229      0.135884
O            -0.462433     -0.419742     -0.110121
O             0.061167     -0.418961     -0.155869
O             0.453500      0.418295      0.094757
Fe            0.141695     -0.244819     -0.280412
Fe            0.369975     -0.089783      0.493207
Fe           -0.155098     -0.083093      0.258726
Fe           -0.341996     -0.256872     -0.485754
H            -0.084594     -0.242275     -0.452387
H            -0.415975     -0.072465      0.298118
H             0.047193     -0.074011      0.469876
H             0.401199     -0.225536     -0.295274
O            -0.183370     -0.258483      0.404749
O            -0.293911     -0.084511     -0.341640
O             0.203795     -0.077251     -0.402910
O             0.306214     -0.225162      0.327425
O            -0.058179     -0.248881     -0.350610
O            -0.438918     -0.080125      0.400421
O             0.038609     -0.081411      0.366448
O             0.437657     -0.254475     -0.388274
Fe            0.158529      0.087589     -0.279842
Fe            0.362521      0.246021      0.481550
Fe           -0.154975      0.260614      0.290165
Fe           -0.346957      0.082779     -0.463671
H            -0.104433      0.062497     -0.459728
H            -0.403309      0.235233      0.320260
H             0.051279      0.272637      0.466246
H             0.449133      0.047745     -0.270106
O            -0.208915      0.080043      0.390905
O            -0.302054      0.261682     -0.347358
O             0.201422      0.239887     -0.409613
O             0.349591      0.072400      0.370109
O            -0.054937      0.072533     -0.368695
O            -0.445354      0.256591      0.411395
O             0.032853      0.267893      0.364231
O             0.461889      0.058055     -0.373596
Fe            0.153758      0.419948     -0.280294
Lu            0.339704     -0.416684      0.439740
Fe           -0.140072     -0.403228      0.251856
Fe           -0.356243      0.424951     -0.474833
H            -0.091214      0.424095     -0.445641
H            -0.416146     -0.411573      0.286234
H             0.072571     -0.425926      0.445356
H             0.430851      0.409306     -0.293615
O            -0.201040      0.432126      0.396503
O            -0.298452     -0.400739     -0.344326
O             0.176301     -0.410247     -0.415545
O             0.293047      0.378671      0.342045
O            -0.062296      0.411364     -0.346402
O            -0.455360     -0.409956      0.384927
O             0.057517     -0.419400      0.341181
O             0.443114      0.414958     -0.397939
data_nwchem_pspw

_audit_creation_date   Fri Aug 30 21:13:30 2024
_audit_creation_method    generated by PSPW module of NWChem


_cell_length_a            10.0667
_cell_length_b             9.1552
_cell_length_c             9.2041
_cell_angle_alpha         90.0000
_cell_angle_beta          90.0000
_cell_angle_gamma         90.0000

_symmetry_space_group_name_H-M     P1  

loop_
_atom_site_type_symbol
_atom_site_fract_x
_atom_site_fract_y
_atom_site_fract_z
Fe            0.152258     -0.236703      0.225734
Fe            0.369917     -0.082054     -0.037533
Fe           -0.153880     -0.074224     -0.227998
Fe           -0.343565     -0.254610      0.033024
H            -0.079675     -0.239211      0.043414
H            -0.408716     -0.089287     -0.206333
H             0.098277     -0.075165     -0.061609
H             0.407990     -0.241871      0.196554
O            -0.196433     -0.243450     -0.102547
O            -0.314518     -0.094499      0.160879
O             0.207387     -0.105112      0.070872
O             0.310015     -0.243436     -0.153858
O            -0.059042     -0.255882      0.144294
O            -0.436701     -0.068875     -0.106650
O             0.058572     -0.064619     -0.157749
O             0.449623     -0.236949      0.101356
Lu            0.138313      0.080981      0.183257
Fe            0.361125      0.257194     -0.039550
Fe           -0.152222      0.237328     -0.236930
Fe           -0.351970      0.072349      0.031492
H            -0.106186      0.069753      0.039522
H            -0.398211      0.261846     -0.185924
H             0.084347      0.270723     -0.048768
H             0.420544      0.077400      0.190680
O            -0.191720      0.082358     -0.094198
O            -0.308602      0.240559      0.169198
O             0.198933      0.272780      0.075617
O             0.301498      0.087371     -0.160323
O            -0.072313      0.078549      0.140592
O            -0.444274      0.260192     -0.092424
O             0.062565      0.245346     -0.147548
O             0.436454      0.087927      0.089823
Fe            0.149840      0.411427      0.220381
Fe            0.356866     -0.404073     -0.018313
Fe           -0.144803     -0.424604     -0.203329
Fe           -0.353295      0.416218      0.039785
H            -0.084297      0.397804      0.053472
H            -0.424614     -0.405905     -0.199218
H             0.100634     -0.396086     -0.036551
H             0.415990      0.409477      0.204453
O            -0.195737      0.399389     -0.083285
O            -0.289970     -0.418959      0.156449
O             0.205211     -0.413647      0.106045
O             0.312262      0.426532     -0.154854
O            -0.058335      0.407026      0.157105
O            -0.462421     -0.400612     -0.100829
O             0.055696     -0.408943     -0.130216
O             0.454200      0.422300      0.107369
Fe            0.139703     -0.240082     -0.259621
Fe            0.352942     -0.078322      0.483468
Fe           -0.141299     -0.082016      0.270826
Fe           -0.339153     -0.249570     -0.470164
H            -0.085168     -0.266334     -0.445453
H            -0.432504     -0.102174      0.301426
H             0.083280     -0.089463      0.450596
H             0.414768     -0.239009     -0.293882
O            -0.187387     -0.251874      0.397201
O            -0.309492     -0.086869     -0.348890
O             0.194740     -0.083242     -0.409289
O             0.307912     -0.227721      0.351815
O            -0.070987     -0.257429     -0.342582
O            -0.432893     -0.087326      0.404079
O             0.049798     -0.078065      0.350941
O             0.452851     -0.227973     -0.391634
Fe            0.148148      0.085248     -0.289934
Fe            0.351096      0.241572      0.462479
Fe           -0.150712      0.239643      0.284832
Fe           -0.359301      0.083150     -0.478877
H            -0.072825      0.063222     -0.451007
H            -0.417754      0.225938      0.306873
H             0.073594      0.240647      0.449691
H             0.412226      0.075543     -0.285148
O            -0.199478      0.083034      0.408147
O            -0.311187      0.236938     -0.337246
O             0.194448      0.257895     -0.405669
O             0.304727      0.076136      0.347011
O            -0.044944      0.080959     -0.350498
O            -0.451200      0.249188      0.403078
O             0.052092      0.239338      0.346771
O             0.427723      0.077870     -0.387903
Fe            0.144234      0.419795     -0.263224
Lu            0.352171     -0.418461      0.492690
Fe           -0.139448     -0.428071      0.280207
Fe           -0.362890      0.424541     -0.460703
H            -0.092543      0.439311     -0.441241
H            -0.386871     -0.410857      0.313927
H             0.078169     -0.429508      0.451472
H             0.407149      0.396041     -0.292403
O            -0.205585      0.416550      0.412868
O            -0.314810     -0.408218     -0.334536
O             0.183831     -0.401818     -0.380880
O             0.318091      0.400380      0.334179
O            -0.071357      0.429590     -0.338244
O            -0.431484     -0.403995      0.408903
O             0.063120     -0.433938      0.348438
O             0.444781      0.394843     -0.391548