data_nwchem_pspw

_audit_creation_date   Sat Dec  9 14:40:10 2023
_audit_creation_method    generated by PSPW module of NWChem


_cell_length_a            10.0667
_cell_length_b             9.1552
_cell_length_c             9.2041
_cell_angle_alpha         90.0000
_cell_angle_beta          90.0000
_cell_angle_gamma         90.0000

_symmetry_space_group_name_H-M     P1  

loop_
_atom_site_type_symbol
_atom_site_fract_x
_atom_site_fract_y
_atom_site_fract_z
Fe            0.146735     -0.250000      0.224756
Fe            0.353175     -0.083327     -0.025375
Fe           -0.146825     -0.083327     -0.224625
Fe           -0.353265     -0.250000      0.025244
H            -0.085221     -0.250000      0.049134
H            -0.414737     -0.083030     -0.201101
H             0.085263     -0.083030     -0.048899
H             0.414779     -0.250000      0.200866
O            -0.196748     -0.250000     -0.095276
O            -0.303195     -0.083277      0.154599
O             0.196805     -0.083277      0.095401
O             0.303252     -0.250000     -0.154724
O            -0.053396     -0.250000      0.148894
O            -0.446594     -0.082953     -0.101355
O             0.053406     -0.082954     -0.148645
O             0.446604     -0.250000      0.101106
Fe            0.146825      0.083327      0.224625
Fe            0.353265      0.250000     -0.025244
Fe           -0.146735      0.250000     -0.224756
Fe           -0.353175      0.083327      0.025375
H            -0.085263      0.083030      0.048899
H            -0.414779      0.250000     -0.200866
H             0.085221      0.250000     -0.049134
H             0.414737      0.083030      0.201101
O            -0.196805      0.083277     -0.095401
O            -0.303252      0.250000      0.154724
O             0.196748      0.250000      0.095276
O             0.303195      0.083277     -0.154599
O            -0.053406      0.082954      0.148645
O            -0.446604      0.250000     -0.101106
O             0.053396      0.250000     -0.148894
O             0.446594      0.082953      0.101355
Fe            0.146825      0.416673      0.224625
Fe            0.353175     -0.416673     -0.025375
Fe           -0.146825     -0.416673     -0.224625
Fe           -0.353175      0.416673      0.025375
H            -0.085263      0.416970      0.048899
H            -0.414737     -0.416970     -0.201101
H             0.085263     -0.416970     -0.048899
H             0.414737      0.416970      0.201101
O            -0.196805      0.416723     -0.095401
O            -0.303195     -0.416723      0.154599
O             0.196805     -0.416723      0.095401
O             0.303195      0.416723     -0.154599
O            -0.053406      0.417047      0.148645
O            -0.446594     -0.417047     -0.101355
O             0.053406     -0.417047     -0.148645
O             0.446594      0.417046      0.101355
Fe            0.146735     -0.250000     -0.275244
Fe            0.353175     -0.083327      0.474625
Fe           -0.146825     -0.083327      0.275375
Fe           -0.353265     -0.250000     -0.474756
H            -0.085221     -0.250000     -0.450866
H            -0.414737     -0.083030      0.298899
H             0.085263     -0.083030      0.451101
H             0.414779     -0.250000     -0.299134
O            -0.196748     -0.250000      0.404724
O            -0.303195     -0.083277     -0.345401
O             0.196805     -0.083277     -0.404599
O             0.303252     -0.250000      0.345276
O            -0.053396     -0.250000     -0.351106
O            -0.446594     -0.082953      0.398645
O             0.053406     -0.082954      0.351355
O             0.446604     -0.250000     -0.398894
Fe            0.146825      0.083327     -0.275375
Fe            0.353265      0.250000      0.474756
Fe           -0.146735      0.250000      0.275244
Fe           -0.353175      0.083327     -0.474625
H            -0.085263      0.083030     -0.451101
H            -0.414779      0.250000      0.299134
H             0.085221      0.250000      0.450866
H             0.414737      0.083030     -0.298899
O            -0.196805      0.083277      0.404599
O            -0.303252      0.250000     -0.345276
O             0.196748      0.250000     -0.404724
O             0.303195      0.083277      0.345401
O            -0.053406      0.082954     -0.351355
O            -0.446604      0.250000      0.398894
O             0.053396      0.250000      0.351106
O             0.446594      0.082953     -0.398645
Fe            0.146825      0.416673     -0.275375
Yb            0.353175     -0.416673      0.474625
Fe           -0.146825     -0.416673      0.275375
Yb           -0.353175      0.416673     -0.474625
H            -0.085263      0.416970     -0.451101
H            -0.414737     -0.416970      0.298899
H             0.085263     -0.416970      0.451101
H             0.414737      0.416970     -0.298899
O            -0.196805      0.416723      0.404599
O            -0.303195     -0.416723     -0.345401
O             0.196805     -0.416723     -0.404599
O             0.303195      0.416723      0.345401
O            -0.053406      0.417047     -0.351355
O            -0.446594     -0.417047      0.398645
O             0.053406     -0.417047      0.351355
O             0.446594      0.417046     -0.398645
data_nwchem_pspw

_audit_creation_date   Sat Dec  9 14:58:44 2023
_audit_creation_method    generated by PSPW module of NWChem


_cell_length_a            10.0667
_cell_length_b             9.1552
_cell_length_c             9.2041
_cell_angle_alpha         90.0000
_cell_angle_beta          90.0000
_cell_angle_gamma         90.0000

_symmetry_space_group_name_H-M     P1  

loop_
_atom_site_type_symbol
_atom_site_fract_x
_atom_site_fract_y
_atom_site_fract_z
Fe            0.146735     -0.250000      0.224756
Fe            0.353175     -0.083327     -0.025375
Fe           -0.146825     -0.083327     -0.224625
Fe           -0.353265     -0.250000      0.025244
H            -0.085221     -0.250000      0.049134
H            -0.414737     -0.083030     -0.201101
H             0.085263     -0.083030     -0.048899
H             0.414779     -0.250000      0.200866
O            -0.196748     -0.250000     -0.095276
O            -0.303195     -0.083277      0.154599
O             0.196805     -0.083277      0.095401
O             0.303252     -0.250000     -0.154724
O            -0.053396     -0.250000      0.148894
O            -0.446594     -0.082953     -0.101355
O             0.053406     -0.082954     -0.148645
O             0.446604     -0.250000      0.101106
Fe            0.146825      0.083327      0.224625
Fe            0.353265      0.250000     -0.025244
Fe           -0.146735      0.250000     -0.224756
Fe           -0.353175      0.083327      0.025375
H            -0.085263      0.083030      0.048899
H            -0.414779      0.250000     -0.200866
H             0.085221      0.250000     -0.049134
H             0.414737      0.083030      0.201101
O            -0.196805      0.083277     -0.095401
O            -0.303252      0.250000      0.154724
O             0.196748      0.250000      0.095276
O             0.303195      0.083277     -0.154599
O            -0.053406      0.082954      0.148645
O            -0.446604      0.250000     -0.101106
O             0.053396      0.250000     -0.148894
O             0.446594      0.082953      0.101355
Fe            0.146825      0.416673      0.224625
Fe            0.353175     -0.416673     -0.025375
Fe           -0.146825     -0.416673     -0.224625
Fe           -0.353175      0.416673      0.025375
H            -0.085263      0.416970      0.048899
H            -0.414737     -0.416970     -0.201101
H             0.085263     -0.416970     -0.048899
H             0.414737      0.416970      0.201101
O            -0.196805      0.416723     -0.095401
O            -0.303195     -0.416723      0.154599
O             0.196805     -0.416723      0.095401
O             0.303195      0.416723     -0.154599
O            -0.053406      0.417047      0.148645
O            -0.446594     -0.417047     -0.101355
O             0.053406     -0.417047     -0.148645
O             0.446594      0.417046      0.101355
Fe            0.146735     -0.250000     -0.275244
Fe            0.353175     -0.083327      0.474625
Fe           -0.146825     -0.083327      0.275375
Fe           -0.353265     -0.250000     -0.474756
H            -0.085221     -0.250000     -0.450866
H            -0.414737     -0.083030      0.298899
H             0.085263     -0.083030      0.451101
H             0.414779     -0.250000     -0.299134
O            -0.196748     -0.250000      0.404724
O            -0.303195     -0.083277     -0.345401
O             0.196805     -0.083277     -0.404599
O             0.303252     -0.250000      0.345276
O            -0.053396     -0.250000     -0.351106
O            -0.446594     -0.082953      0.398645
O             0.053406     -0.082954      0.351355
O             0.446604     -0.250000     -0.398894
Fe            0.146825      0.083327     -0.275375
Fe            0.353265      0.250000      0.474756
Fe           -0.146735      0.250000      0.275244
Fe           -0.353175      0.083327     -0.474625
H            -0.085263      0.083030     -0.451101
H            -0.414779      0.250000      0.299134
H             0.085221      0.250000      0.450866
H             0.414737      0.083030     -0.298899
O            -0.196805      0.083277      0.404599
O            -0.303252      0.250000     -0.345276
O             0.196748      0.250000     -0.404724
O             0.303195      0.083277      0.345401
O            -0.053406      0.082954     -0.351355
O            -0.446604      0.250000      0.398894
O             0.053396      0.250000      0.351106
O             0.446594      0.082953     -0.398645
Fe            0.146825      0.416673     -0.275375
Yb            0.353175     -0.416673      0.474625
Fe           -0.146825     -0.416673      0.275375
Yb           -0.353175      0.416673     -0.474625
H            -0.085263      0.416970     -0.451101
H            -0.414737     -0.416970      0.298899
H             0.085263     -0.416970      0.451101
H             0.414737      0.416970     -0.298899
O            -0.196805      0.416723      0.404599
O            -0.303195     -0.416723     -0.345401
O             0.196805     -0.416723     -0.404599
O             0.303195      0.416723      0.345401
O            -0.053406      0.417047     -0.351355
O            -0.446594     -0.417047      0.398645
O             0.053406     -0.417047      0.351355
O             0.446594      0.417046     -0.398645
data_nwchem_pspw

_audit_creation_date   Sat Dec  9 14:59:49 2023
_audit_creation_method    generated by PSPW module of NWChem


_cell_length_a            10.0667
_cell_length_b             9.1552
_cell_length_c             9.2041
_cell_angle_alpha         90.0000
_cell_angle_beta          90.0000
_cell_angle_gamma         90.0000

_symmetry_space_group_name_H-M     P1  

loop_
_atom_site_type_symbol
_atom_site_fract_x
_atom_site_fract_y
_atom_site_fract_z
Fe            0.146735     -0.250000      0.224756
Fe            0.353175     -0.083327     -0.025375
Fe           -0.146825     -0.083327     -0.224625
Fe           -0.353265     -0.250000      0.025244
H            -0.085221     -0.250000      0.049134
H            -0.414737     -0.083030     -0.201101
H             0.085263     -0.083030     -0.048899
H             0.414779     -0.250000      0.200866
O            -0.196748     -0.250000     -0.095276
O            -0.303195     -0.083277      0.154599
O             0.196805     -0.083277      0.095401
O             0.303252     -0.250000     -0.154724
O            -0.053396     -0.250000      0.148894
O            -0.446594     -0.082953     -0.101355
O             0.053406     -0.082954     -0.148645
O             0.446604     -0.250000      0.101106
Fe            0.146825      0.083327      0.224625
Fe            0.353265      0.250000     -0.025244
Fe           -0.146735      0.250000     -0.224756
Fe           -0.353175      0.083327      0.025375
H            -0.085263      0.083030      0.048899
H            -0.414779      0.250000     -0.200866
H             0.085221      0.250000     -0.049134
H             0.414737      0.083030      0.201101
O            -0.196805      0.083277     -0.095401
O            -0.303252      0.250000      0.154724
O             0.196748      0.250000      0.095276
O             0.303195      0.083277     -0.154599
O            -0.053406      0.082954      0.148645
O            -0.446604      0.250000     -0.101106
O             0.053396      0.250000     -0.148894
O             0.446594      0.082953      0.101355
Fe            0.146825      0.416673      0.224625
Fe            0.353175     -0.416673     -0.025375
Fe           -0.146825     -0.416673     -0.224625
Fe           -0.353175      0.416673      0.025375
H            -0.085263      0.416970      0.048899
H            -0.414737     -0.416970     -0.201101
H             0.085263     -0.416970     -0.048899
H             0.414737      0.416970      0.201101
O            -0.196805      0.416723     -0.095401
O            -0.303195     -0.416723      0.154599
O             0.196805     -0.416723      0.095401
O             0.303195      0.416723     -0.154599
O            -0.053406      0.417047      0.148645
O            -0.446594     -0.417047     -0.101355
O             0.053406     -0.417047     -0.148645
O             0.446594      0.417046      0.101355
Fe            0.146735     -0.250000     -0.275244
Fe            0.353175     -0.083327      0.474625
Fe           -0.146825     -0.083327      0.275375
Fe           -0.353265     -0.250000     -0.474756
H            -0.085221     -0.250000     -0.450866
H            -0.414737     -0.083030      0.298899
H             0.085263     -0.083030      0.451101
H             0.414779     -0.250000     -0.299134
O            -0.196748     -0.250000      0.404724
O            -0.303195     -0.083277     -0.345401
O             0.196805     -0.083277     -0.404599
O             0.303252     -0.250000      0.345276
O            -0.053396     -0.250000     -0.351106
O            -0.446594     -0.082953      0.398645
O             0.053406     -0.082954      0.351355
O             0.446604     -0.250000     -0.398894
Fe            0.146825      0.083327     -0.275375
Fe            0.353265      0.250000      0.474756
Fe           -0.146735      0.250000      0.275244
Fe           -0.353175      0.083327     -0.474625
H            -0.085263      0.083030     -0.451101
H            -0.414779      0.250000      0.299134
H             0.085221      0.250000      0.450866
H             0.414737      0.083030     -0.298899
O            -0.196805      0.083277      0.404599
O            -0.303252      0.250000     -0.345276
O             0.196748      0.250000     -0.404724
O             0.303195      0.083277      0.345401
O            -0.053406      0.082954     -0.351355
O            -0.446604      0.250000      0.398894
O             0.053396      0.250000      0.351106
O             0.446594      0.082953     -0.398645
Fe            0.146825      0.416673     -0.275375
Yb            0.353175     -0.416673      0.474625
Fe           -0.146825     -0.416673      0.275375
Yb           -0.353175      0.416673     -0.474625
H            -0.085263      0.416970     -0.451101
H            -0.414737     -0.416970      0.298899
H             0.085263     -0.416970      0.451101
H             0.414737      0.416970     -0.298899
O            -0.196805      0.416723      0.404599
O            -0.303195     -0.416723     -0.345401
O             0.196805     -0.416723     -0.404599
O             0.303195      0.416723      0.345401
O            -0.053406      0.417047     -0.351355
O            -0.446594     -0.417047      0.398645
O             0.053406     -0.417047      0.351355
O             0.446594      0.417046     -0.398645
data_nwchem_pspw

_audit_creation_date   Sat Dec  9 15:27:38 2023
_audit_creation_method    generated by PSPW module of NWChem


_cell_length_a            10.0667
_cell_length_b             9.1552
_cell_length_c             9.2041
_cell_angle_alpha         90.0000
_cell_angle_beta          90.0000
_cell_angle_gamma         90.0000

_symmetry_space_group_name_H-M     P1  

loop_
_atom_site_type_symbol
_atom_site_fract_x
_atom_site_fract_y
_atom_site_fract_z
Fe            0.146735     -0.250000      0.224756
Fe            0.353175     -0.083327     -0.025375
Fe           -0.146825     -0.083327     -0.224625
Fe           -0.353265     -0.250000      0.025244
H            -0.085221     -0.250000      0.049134
H            -0.414737     -0.083030     -0.201101
H             0.085263     -0.083030     -0.048899
H             0.414779     -0.250000      0.200866
O            -0.196748     -0.250000     -0.095276
O            -0.303195     -0.083277      0.154599
O             0.196805     -0.083277      0.095401
O             0.303252     -0.250000     -0.154724
O            -0.053396     -0.250000      0.148894
O            -0.446594     -0.082953     -0.101355
O             0.053406     -0.082954     -0.148645
O             0.446604     -0.250000      0.101106
Fe            0.146825      0.083327      0.224625
Fe            0.353265      0.250000     -0.025244
Fe           -0.146735      0.250000     -0.224756
Fe           -0.353175      0.083327      0.025375
H            -0.085263      0.083030      0.048899
H            -0.414779      0.250000     -0.200866
H             0.085221      0.250000     -0.049134
H             0.414737      0.083030      0.201101
O            -0.196805      0.083277     -0.095401
O            -0.303252      0.250000      0.154724
O             0.196748      0.250000      0.095276
O             0.303195      0.083277     -0.154599
O            -0.053406      0.082954      0.148645
O            -0.446604      0.250000     -0.101106
O             0.053396      0.250000     -0.148894
O             0.446594      0.082953      0.101355
Fe            0.146825      0.416673      0.224625
Fe            0.353175     -0.416673     -0.025375
Fe           -0.146825     -0.416673     -0.224625
Fe           -0.353175      0.416673      0.025375
H            -0.085263      0.416970      0.048899
H            -0.414737     -0.416970     -0.201101
H             0.085263     -0.416970     -0.048899
H             0.414737      0.416970      0.201101
O            -0.196805      0.416723     -0.095401
O            -0.303195     -0.416723      0.154599
O             0.196805     -0.416723      0.095401
O             0.303195      0.416723     -0.154599
O            -0.053406      0.417047      0.148645
O            -0.446594     -0.417047     -0.101355
O             0.053406     -0.417047     -0.148645
O             0.446594      0.417046      0.101355
Fe            0.146735     -0.250000     -0.275244
Fe            0.353175     -0.083327      0.474625
Fe           -0.146825     -0.083327      0.275375
Fe           -0.353265     -0.250000     -0.474756
H            -0.085221     -0.250000     -0.450866
H            -0.414737     -0.083030      0.298899
H             0.085263     -0.083030      0.451101
H             0.414779     -0.250000     -0.299134
O            -0.196748     -0.250000      0.404724
O            -0.303195     -0.083277     -0.345401
O             0.196805     -0.083277     -0.404599
O             0.303252     -0.250000      0.345276
O            -0.053396     -0.250000     -0.351106
O            -0.446594     -0.082953      0.398645
O             0.053406     -0.082954      0.351355
O             0.446604     -0.250000     -0.398894
Fe            0.146825      0.083327     -0.275375
Fe            0.353265      0.250000      0.474756
Fe           -0.146735      0.250000      0.275244
Fe           -0.353175      0.083327     -0.474625
H            -0.085263      0.083030     -0.451101
H            -0.414779      0.250000      0.299134
H             0.085221      0.250000      0.450866
H             0.414737      0.083030     -0.298899
O            -0.196805      0.083277      0.404599
O            -0.303252      0.250000     -0.345276
O             0.196748      0.250000     -0.404724
O             0.303195      0.083277      0.345401
O            -0.053406      0.082954     -0.351355
O            -0.446604      0.250000      0.398894
O             0.053396      0.250000      0.351106
O             0.446594      0.082953     -0.398645
Fe            0.146825      0.416673     -0.275375
Yb            0.353175     -0.416673      0.474625
Fe           -0.146825     -0.416673      0.275375
Yb           -0.353175      0.416673     -0.474625
H            -0.085263      0.416970     -0.451101
H            -0.414737     -0.416970      0.298899
H             0.085263     -0.416970      0.451101
H             0.414737      0.416970     -0.298899
O            -0.196805      0.416723      0.404599
O            -0.303195     -0.416723     -0.345401
O             0.196805     -0.416723     -0.404599
O             0.303195      0.416723      0.345401
O            -0.053406      0.417047     -0.351355
O            -0.446594     -0.417047      0.398645
O             0.053406     -0.417047      0.351355
O             0.446594      0.417046     -0.398645
data_nwchem_pspw

_audit_creation_date   Sat Dec  9 17:16:10 2023
_audit_creation_method    generated by PSPW module of NWChem


_cell_length_a            10.0667
_cell_length_b             9.1552
_cell_length_c             9.2041
_cell_angle_alpha         90.0000
_cell_angle_beta          90.0000
_cell_angle_gamma         90.0000

_symmetry_space_group_name_H-M     P1  

loop_
_atom_site_type_symbol
_atom_site_fract_x
_atom_site_fract_y
_atom_site_fract_z
Fe            0.146735     -0.250000      0.224756
Fe            0.353175     -0.083327     -0.025375
Fe           -0.146825     -0.083327     -0.224625
Fe           -0.353265     -0.250000      0.025244
H            -0.085221     -0.250000      0.049134
H            -0.414737     -0.083030     -0.201101
H             0.085263     -0.083030     -0.048899
H             0.414779     -0.250000      0.200866
O            -0.196748     -0.250000     -0.095276
O            -0.303195     -0.083277      0.154599
O             0.196805     -0.083277      0.095401
O             0.303252     -0.250000     -0.154724
O            -0.053396     -0.250000      0.148894
O            -0.446594     -0.082953     -0.101355
O             0.053406     -0.082954     -0.148645
O             0.446604     -0.250000      0.101106
Fe            0.146825      0.083327      0.224625
Fe            0.353265      0.250000     -0.025244
Fe           -0.146735      0.250000     -0.224756
Fe           -0.353175      0.083327      0.025375
H            -0.085263      0.083030      0.048899
H            -0.414779      0.250000     -0.200866
H             0.085221      0.250000     -0.049134
H             0.414737      0.083030      0.201101
O            -0.196805      0.083277     -0.095401
O            -0.303252      0.250000      0.154724
O             0.196748      0.250000      0.095276
O             0.303195      0.083277     -0.154599
O            -0.053406      0.082954      0.148645
O            -0.446604      0.250000     -0.101106
O             0.053396      0.250000     -0.148894
O             0.446594      0.082953      0.101355
Fe            0.146825      0.416673      0.224625
Fe            0.353175     -0.416673     -0.025375
Fe           -0.146825     -0.416673     -0.224625
Fe           -0.353175      0.416673      0.025375
H            -0.085263      0.416970      0.048899
H            -0.414737     -0.416970     -0.201101
H             0.085263     -0.416970     -0.048899
H             0.414737      0.416970      0.201101
O            -0.196805      0.416723     -0.095401
O            -0.303195     -0.416723      0.154599
O             0.196805     -0.416723      0.095401
O             0.303195      0.416723     -0.154599
O            -0.053406      0.417047      0.148645
O            -0.446594     -0.417047     -0.101355
O             0.053406     -0.417047     -0.148645
O             0.446594      0.417046      0.101355
Fe            0.146735     -0.250000     -0.275244
Fe            0.353175     -0.083327      0.474625
Fe           -0.146825     -0.083327      0.275375
Fe           -0.353265     -0.250000     -0.474756
H            -0.085221     -0.250000     -0.450866
H            -0.414737     -0.083030      0.298899
H             0.085263     -0.083030      0.451101
H             0.414779     -0.250000     -0.299134
O            -0.196748     -0.250000      0.404724
O            -0.303195     -0.083277     -0.345401
O             0.196805     -0.083277     -0.404599
O             0.303252     -0.250000      0.345276
O            -0.053396     -0.250000     -0.351106
O            -0.446594     -0.082953      0.398645
O             0.053406     -0.082954      0.351355
O             0.446604     -0.250000     -0.398894
Fe            0.146825      0.083327     -0.275375
Fe            0.353265      0.250000      0.474756
Fe           -0.146735      0.250000      0.275244
Fe           -0.353175      0.083327     -0.474625
H            -0.085263      0.083030     -0.451101
H            -0.414779      0.250000      0.299134
H             0.085221      0.250000      0.450866
H             0.414737      0.083030     -0.298899
O            -0.196805      0.083277      0.404599
O            -0.303252      0.250000     -0.345276
O             0.196748      0.250000     -0.404724
O             0.303195      0.083277      0.345401
O            -0.053406      0.082954     -0.351355
O            -0.446604      0.250000      0.398894
O             0.053396      0.250000      0.351106
O             0.446594      0.082953     -0.398645
Fe            0.146825      0.416673     -0.275375
Yb            0.353175     -0.416673      0.474625
Fe           -0.146825     -0.416673      0.275375
Yb           -0.353175      0.416673     -0.474625
H            -0.085263      0.416970     -0.451101
H            -0.414737     -0.416970      0.298899
H             0.085263     -0.416970      0.451101
H             0.414737      0.416970     -0.298899
O            -0.196805      0.416723      0.404599
O            -0.303195     -0.416723     -0.345401
O             0.196805     -0.416723     -0.404599
O             0.303195      0.416723      0.345401
O            -0.053406      0.417047     -0.351355
O            -0.446594     -0.417047      0.398645
O             0.053406     -0.417047      0.351355
O             0.446594      0.417046     -0.398645
data_nwchem_pspw

_audit_creation_date   Sat Dec  9 19:02:25 2023
_audit_creation_method    generated by PSPW module of NWChem


_cell_length_a            10.0667
_cell_length_b             9.1552
_cell_length_c             9.2041
_cell_angle_alpha         90.0000
_cell_angle_beta          90.0000
_cell_angle_gamma         90.0000

_symmetry_space_group_name_H-M     P1  

loop_
_atom_site_type_symbol
_atom_site_fract_x
_atom_site_fract_y
_atom_site_fract_z
Fe            0.146735     -0.250000      0.224756
Fe            0.353175     -0.083327     -0.025375
Fe           -0.146825     -0.083327     -0.224625
Fe           -0.353265     -0.250000      0.025244
H            -0.085221     -0.250000      0.049134
H            -0.414737     -0.083030     -0.201101
H             0.085263     -0.083030     -0.048899
H             0.414779     -0.250000      0.200866
O            -0.196748     -0.250000     -0.095276
O            -0.303195     -0.083277      0.154599
O             0.196805     -0.083277      0.095401
O             0.303252     -0.250000     -0.154724
O            -0.053396     -0.250000      0.148894
O            -0.446594     -0.082953     -0.101355
O             0.053406     -0.082954     -0.148645
O             0.446604     -0.250000      0.101106
Fe            0.146825      0.083327      0.224625
Fe            0.353265      0.250000     -0.025244
Fe           -0.146735      0.250000     -0.224756
Fe           -0.353175      0.083327      0.025375
H            -0.085263      0.083030      0.048899
H            -0.414779      0.250000     -0.200866
H             0.085221      0.250000     -0.049134
H             0.414737      0.083030      0.201101
O            -0.196805      0.083277     -0.095401
O            -0.303252      0.250000      0.154724
O             0.196748      0.250000      0.095276
O             0.303195      0.083277     -0.154599
O            -0.053406      0.082954      0.148645
O            -0.446604      0.250000     -0.101106
O             0.053396      0.250000     -0.148894
O             0.446594      0.082953      0.101355
Fe            0.146825      0.416673      0.224625
Fe            0.353175     -0.416673     -0.025375
Fe           -0.146825     -0.416673     -0.224625
Fe           -0.353175      0.416673      0.025375
H            -0.085263      0.416970      0.048899
H            -0.414737     -0.416970     -0.201101
H             0.085263     -0.416970     -0.048899
H             0.414737      0.416970      0.201101
O            -0.196805      0.416723     -0.095401
O            -0.303195     -0.416723      0.154599
O             0.196805     -0.416723      0.095401
O             0.303195      0.416723     -0.154599
O            -0.053406      0.417047      0.148645
O            -0.446594     -0.417047     -0.101355
O             0.053406     -0.417047     -0.148645
O             0.446594      0.417046      0.101355
Fe            0.146735     -0.250000     -0.275244
Fe            0.353175     -0.083327      0.474625
Fe           -0.146825     -0.083327      0.275375
Fe           -0.353265     -0.250000     -0.474756
H            -0.085221     -0.250000     -0.450866
H            -0.414737     -0.083030      0.298899
H             0.085263     -0.083030      0.451101
H             0.414779     -0.250000     -0.299134
O            -0.196748     -0.250000      0.404724
O            -0.303195     -0.083277     -0.345401
O             0.196805     -0.083277     -0.404599
O             0.303252     -0.250000      0.345276
O            -0.053396     -0.250000     -0.351106
O            -0.446594     -0.082953      0.398645
O             0.053406     -0.082954      0.351355
O             0.446604     -0.250000     -0.398894
Fe            0.146825      0.083327     -0.275375
Fe            0.353265      0.250000      0.474756
Fe           -0.146735      0.250000      0.275244
Fe           -0.353175      0.083327     -0.474625
H            -0.085263      0.083030     -0.451101
H            -0.414779      0.250000      0.299134
H             0.085221      0.250000      0.450866
H             0.414737      0.083030     -0.298899
O            -0.196805      0.083277      0.404599
O            -0.303252      0.250000     -0.345276
O             0.196748      0.250000     -0.404724
O             0.303195      0.083277      0.345401
O            -0.053406      0.082954     -0.351355
O            -0.446604      0.250000      0.398894
O             0.053396      0.250000      0.351106
O             0.446594      0.082953     -0.398645
Fe            0.146825      0.416673     -0.275375
Yb            0.353175     -0.416673      0.474625
Fe           -0.146825     -0.416673      0.275375
Yb           -0.353175      0.416673     -0.474625
H            -0.085263      0.416970     -0.451101
H            -0.414737     -0.416970      0.298899
H             0.085263     -0.416970      0.451101
H             0.414737      0.416970     -0.298899
O            -0.196805      0.416723      0.404599
O            -0.303195     -0.416723     -0.345401
O             0.196805     -0.416723     -0.404599
O             0.303195      0.416723      0.345401
O            -0.053406      0.417047     -0.351355
O            -0.446594     -0.417047      0.398645
O             0.053406     -0.417047      0.351355
O             0.446594      0.417046     -0.398645
data_nwchem_pspw

_audit_creation_date   Sun Dec 10 00:06:43 2023
_audit_creation_method    generated by PSPW module of NWChem


_cell_length_a            10.0667
_cell_length_b             9.1552
_cell_length_c             9.2041
_cell_angle_alpha         90.0000
_cell_angle_beta          90.0000
_cell_angle_gamma         90.0000

_symmetry_space_group_name_H-M     P1  

loop_
_atom_site_type_symbol
_atom_site_fract_x
_atom_site_fract_y
_atom_site_fract_z
Fe            0.153051     -0.238048      0.212105
Fe            0.363370     -0.075451     -0.029294
Fe           -0.144745     -0.091828     -0.223350
Fe           -0.358132     -0.266811      0.020387
H            -0.103129     -0.255706      0.057913
H            -0.427514     -0.097986     -0.210921
H             0.086996     -0.077469     -0.055241
H             0.416446     -0.230078      0.197401
O            -0.198312     -0.247003     -0.079121
O            -0.303328     -0.098568      0.148037
O             0.195596     -0.074973      0.087833
O             0.309702     -0.250225     -0.152596
O            -0.058052     -0.246309      0.152910
O            -0.444972     -0.080006     -0.109492
O             0.050729     -0.081476     -0.153374
O             0.441351     -0.252041      0.097040
Fe            0.150194      0.088497      0.225804
Fe            0.362582      0.263044     -0.023061
Fe           -0.146976      0.235603     -0.218987
Fe           -0.362411      0.075745      0.030513
H            -0.083927      0.079431      0.052096
H            -0.406372      0.235712     -0.196094
H             0.102239      0.274131     -0.050482
H             0.409551      0.096077      0.203087
O            -0.197125      0.084665     -0.084237
O            -0.306505      0.251773      0.153995
O             0.199256      0.252115      0.078600
O             0.302699      0.098975     -0.147782
O            -0.065239      0.078498      0.155733
O            -0.432969      0.253581     -0.097954
O             0.067747      0.250685     -0.146665
O             0.449205      0.093457      0.104130
Fe            0.149467      0.412372      0.217009
Fe            0.353325     -0.421119     -0.024440
Fe           -0.147492     -0.414297     -0.215418
Fe           -0.354859      0.419029      0.021018
H            -0.081237      0.419471      0.041752
H            -0.404029     -0.425430     -0.192845
H             0.085568     -0.421388     -0.034415
H             0.412316      0.418999      0.203667
O            -0.221763      0.404143     -0.115981
O            -0.289652     -0.425357      0.151740
O             0.218371     -0.403680      0.107070
O             0.300871      0.423726     -0.156765
O            -0.051218      0.423834      0.139851
O            -0.455794     -0.421774     -0.104659
O             0.047130     -0.423112     -0.130413
O             0.451494      0.413682      0.106379
Fe            0.143336     -0.249054     -0.254316
Fe            0.352363     -0.092619      0.485607
Fe           -0.150803     -0.086563      0.276295
Fe           -0.343074     -0.253601     -0.478552
H            -0.075943     -0.284683     -0.446222
H            -0.426099     -0.105419      0.300122
H             0.081438     -0.086015      0.447194
H             0.437216     -0.240667     -0.287085
O            -0.192832     -0.253105      0.409589
O            -0.303049     -0.080118     -0.343697
O             0.194165     -0.090736     -0.399247
O             0.304115     -0.228354      0.329814
O            -0.059985     -0.260947     -0.345367
O            -0.444892     -0.081879      0.401826
O             0.048372     -0.086174      0.349108
O             0.462371     -0.256524     -0.386837
Fe            0.151183      0.088080     -0.275767
Fe            0.346718      0.248994      0.475638
Fe           -0.144813      0.250018      0.261467
Fe           -0.349273      0.084685     -0.476345
H            -0.080748      0.100436     -0.449089
H            -0.425350      0.260577      0.283284
H             0.065604      0.285766      0.445786
H             0.416075      0.088495     -0.306756
O            -0.190541      0.086247      0.407732
O            -0.301600      0.225781     -0.333685
O             0.195811      0.250066     -0.414428
O             0.307703      0.080178      0.341555
O            -0.044809      0.091385     -0.350260
O            -0.464380      0.255348      0.379695
O             0.065399      0.262811      0.344419
O             0.448680      0.080788     -0.405963
Fe            0.146596      0.414747     -0.263223
Yb            0.334708     -0.412422      0.467450
Fe           -0.143756     -0.413961      0.264981
Yb           -0.344958      0.417200     -0.467788
H            -0.082858      0.413457     -0.456339
H            -0.397058     -0.429128      0.303274
H             0.068090     -0.433454      0.445995
H             0.401231      0.436021     -0.306196
O            -0.168381      0.416746      0.400880
O            -0.290564     -0.394297     -0.340947
O             0.160765     -0.415668     -0.403116
O             0.300555      0.396065      0.343616
O            -0.059405      0.414030     -0.349785
O            -0.447013     -0.415865      0.391582
O             0.050204     -0.419660      0.342645
O             0.442578      0.423485     -0.396700
data_nwchem_pspw

_audit_creation_date   Sun Dec 10 04:32:55 2023
_audit_creation_method    generated by PSPW module of NWChem


_cell_length_a            10.0667
_cell_length_b             9.1552
_cell_length_c             9.2041
_cell_angle_alpha         90.0000
_cell_angle_beta          90.0000
_cell_angle_gamma         90.0000

_symmetry_space_group_name_H-M     P1  

loop_
_atom_site_type_symbol
_atom_site_fract_x
_atom_site_fract_y
_atom_site_fract_z
Fe            0.143725     -0.251284      0.209046
Fe            0.343661     -0.086102     -0.017476
Fe           -0.147963     -0.077849     -0.225271
Fe           -0.348961     -0.243986      0.017968
H            -0.113842     -0.233164      0.057845
H            -0.422889     -0.092686     -0.199621
H             0.052608     -0.108813     -0.053617
H             0.434213     -0.225047      0.199237
O            -0.188820     -0.246867     -0.088524
O            -0.297460     -0.058712      0.163823
O             0.181716     -0.080310      0.091569
O             0.285717     -0.253958     -0.140406
O            -0.060143     -0.237268      0.147331
O            -0.447790     -0.087501     -0.096933
O             0.045079     -0.089390     -0.155092
O             0.445483     -0.235487      0.095302
Fe            0.137428      0.078742      0.245908
Fe            0.342559      0.238279     -0.021425
Fe           -0.139510      0.255557     -0.227134
Fe           -0.347324      0.087096      0.019926
H            -0.063871      0.086426      0.063076
H            -0.416156      0.230622     -0.186979
H             0.099670      0.269605     -0.047674
H             0.418568      0.094709      0.202004
O            -0.179127      0.078581     -0.085084
O            -0.298646      0.246068      0.158091
O             0.185440      0.246341      0.102347
O             0.311204      0.076120     -0.160318
O            -0.047099      0.087118      0.167108
O            -0.453768      0.234105     -0.091570
O             0.056910      0.276129     -0.142816
O             0.451915      0.081752      0.104063
Fe            0.150746      0.410128      0.227874
Fe            0.355716     -0.419556     -0.026738
Fe           -0.146760     -0.406196     -0.221055
Fe           -0.350612      0.413641      0.024139
H            -0.077770      0.433750      0.046528
H            -0.403219     -0.405950     -0.197842
H             0.078736     -0.404232     -0.044441
H             0.405704      0.421315      0.196406
O            -0.190846      0.423065     -0.101595
O            -0.297389     -0.409423      0.138876
O             0.195420     -0.422995      0.095419
O             0.285623      0.416765     -0.137466
O            -0.047725      0.409432      0.145799
O            -0.446240     -0.420670     -0.103970
O             0.041845     -0.412977     -0.141721
O             0.444364      0.414901      0.097850
Fe            0.135942     -0.246595     -0.268125
Fe            0.360063     -0.086252      0.471187
Fe           -0.144371     -0.079285      0.285454
Fe           -0.345582     -0.257456     -0.475371
H            -0.092566     -0.252915     -0.442212
H            -0.389514     -0.084809      0.304983
H             0.099622     -0.107964      0.458872
H             0.403192     -0.256268     -0.294565
O            -0.188562     -0.253199      0.410748
O            -0.299893     -0.072413     -0.337504
O             0.188792     -0.080956     -0.409532
O             0.308239     -0.224203      0.324603
O            -0.063711     -0.270007     -0.341861
O            -0.427347     -0.095146      0.404932
O             0.055041     -0.101564      0.361952
O             0.441043     -0.238318     -0.389221
Fe            0.142146      0.080861     -0.271407
Fe            0.342483      0.235522      0.464606
Fe           -0.142129      0.243527      0.276351
Fe           -0.352495      0.085983     -0.459429
H            -0.096184      0.100701     -0.456922
H            -0.417413      0.213390      0.302480
H             0.052874      0.251121      0.460746
H             0.432988      0.074719     -0.299748
O            -0.195088      0.072279      0.418531
O            -0.306478      0.243385     -0.321224
O             0.197519      0.244441     -0.394372
O             0.300901      0.075054      0.353273
O            -0.050877      0.088471     -0.358494
O            -0.438677      0.234180      0.401290
O             0.044374      0.265715      0.358447
O             0.437664      0.080762     -0.403383
Fe            0.137589      0.414562     -0.277703
Yb            0.354196     -0.410103      0.455184
Fe           -0.138793     -0.408950      0.269567
Yb           -0.350538      0.415517     -0.472887
H            -0.086072      0.421733     -0.459047
H            -0.408408     -0.401515      0.278507
H             0.081054     -0.434407      0.445259
H             0.401857      0.415641     -0.300273
O            -0.183675      0.429069      0.383056
O            -0.301002     -0.410458     -0.338603
O             0.196320     -0.427044     -0.386264
O             0.300708      0.394203      0.343517
O            -0.049353      0.414686     -0.358556
O            -0.438466     -0.417480      0.378690
O             0.062998     -0.407274      0.346554
O             0.440950      0.429960     -0.393327
data_nwchem_pspw

_audit_creation_date   Sun Dec 10 09:22:09 2023
_audit_creation_method    generated by PSPW module of NWChem


_cell_length_a            10.0667
_cell_length_b             9.1552
_cell_length_c             9.2041
_cell_angle_alpha         90.0000
_cell_angle_beta          90.0000
_cell_angle_gamma         90.0000

_symmetry_space_group_name_H-M     P1  

loop_
_atom_site_type_symbol
_atom_site_fract_x
_atom_site_fract_y
_atom_site_fract_z
Fe            0.144518     -0.240753      0.204582
Fe            0.356000     -0.081039     -0.030816
Fe           -0.146987     -0.075796     -0.228068
Fe           -0.356418     -0.242869      0.026090
H            -0.097939     -0.231739      0.042851
H            -0.416091     -0.090020     -0.191418
H             0.103695     -0.066412     -0.048855
H             0.427351     -0.256970      0.196162
O            -0.190840     -0.232766     -0.078900
O            -0.306576     -0.077817      0.169727
O             0.217114     -0.072230      0.102794
O             0.295023     -0.259318     -0.154464
O            -0.055607     -0.240301      0.141731
O            -0.442816     -0.087619     -0.089893
O             0.060171     -0.076309     -0.141367
O             0.451290     -0.264363      0.095023
Fe            0.141237      0.084210      0.228741
Fe            0.356086      0.247273     -0.041633
Fe           -0.138501      0.245029     -0.227051
Fe           -0.344096      0.098989      0.036733
H            -0.091703      0.082975      0.056944
H            -0.425738      0.220640     -0.190701
H             0.095344      0.217159     -0.043685
H             0.402404      0.096071      0.195304
O            -0.188359      0.079587     -0.076013
O            -0.295185      0.261486      0.159180
O             0.200255      0.240742      0.085796
O             0.314147      0.078831     -0.160078
O            -0.053564      0.100572      0.157929
O            -0.445910      0.254957     -0.093657
O             0.045188      0.232972     -0.134052
O             0.459412      0.085947      0.109440
Fe            0.155782      0.399887      0.216578
Fe            0.353548     -0.421598     -0.030623
Fe           -0.156072     -0.399234     -0.205431
Fe           -0.341027      0.426415      0.025898
H            -0.074388      0.415250      0.038869
H            -0.407450     -0.431254     -0.203693
H             0.058266     -0.430727     -0.035100
H             0.421439      0.391807      0.189488
O            -0.192126      0.404835     -0.105159
O            -0.292805     -0.405635      0.152208
O             0.192471     -0.411605      0.087419
O             0.310937      0.413990     -0.164031
O            -0.045015      0.422668      0.139038
O            -0.446017     -0.419027     -0.111530
O             0.039482     -0.423201     -0.139170
O             0.447758      0.406688      0.088993
Fe            0.142603     -0.259332     -0.274816
Fe            0.357441     -0.087830      0.478933
Fe           -0.138790     -0.084234      0.276011
Fe           -0.350797     -0.252402     -0.480453
H            -0.090689     -0.270412     -0.431895
H            -0.398948     -0.070831      0.318562
H             0.087685     -0.088460      0.440005
H             0.433514     -0.261969     -0.283614
O            -0.189489     -0.247232      0.405457
O            -0.306299     -0.095798     -0.343196
O             0.180279     -0.085426     -0.410534
O             0.294318     -0.218841      0.332548
O            -0.057119     -0.242617     -0.335793
O            -0.441385     -0.104626      0.410951
O             0.053633     -0.096520      0.339759
O             0.454441     -0.251937     -0.385144
Fe            0.146130      0.082587     -0.270061
Fe            0.352163      0.247751      0.472686
Fe           -0.150848      0.257763      0.288646
Fe           -0.359464      0.077336     -0.466071
H            -0.068032      0.077935     -0.460637
H            -0.426140      0.225081      0.294992
H             0.086145      0.269693      0.446979
H             0.397021      0.083256     -0.307909
O            -0.197553      0.091518      0.402829
O            -0.296758      0.224537     -0.338752
O             0.191007      0.247730     -0.391249
O             0.294789      0.090837      0.343484
O            -0.052194      0.095385     -0.358951
O            -0.452092      0.222400      0.394745
O             0.051573      0.256135      0.349229
O             0.444066      0.079558     -0.402070
Fe            0.135251      0.414751     -0.257596
Yb            0.343326     -0.412181      0.459643
Fe           -0.130605     -0.405715      0.262885
Yb           -0.356360      0.411220     -0.464214
H            -0.084464      0.394096     -0.452229
H            -0.392288     -0.402248      0.297462
H             0.080912     -0.420974      0.447864
H             0.374910      0.394839     -0.310540
O            -0.184231      0.429675      0.398119
O            -0.310759     -0.392095     -0.331106
O             0.173751     -0.430430     -0.394301
O             0.320402      0.388737      0.328659
O            -0.061984      0.403499     -0.351183
O            -0.441468     -0.412445      0.388858
O             0.071440     -0.434027      0.344183
O             0.430633      0.389440     -0.406497
data_nwchem_pspw

_audit_creation_date   Sun Dec 10 13:26:25 2023
_audit_creation_method    generated by PSPW module of NWChem


_cell_length_a            10.0667
_cell_length_b             9.1552
_cell_length_c             9.2041
_cell_angle_alpha         90.0000
_cell_angle_beta          90.0000
_cell_angle_gamma         90.0000

_symmetry_space_group_name_H-M     P1  

loop_
_atom_site_type_symbol
_atom_site_fract_x
_atom_site_fract_y
_atom_site_fract_z
Fe            0.150583     -0.253019      0.211749
Fe            0.357216     -0.071705     -0.018577
Fe           -0.158203     -0.078465     -0.228084
Fe           -0.358378     -0.242210      0.024857
H            -0.079308     -0.261413      0.048918
H            -0.410595     -0.083621     -0.194853
H             0.076507     -0.081029     -0.054994
H             0.428597     -0.224430      0.217144
O            -0.199870     -0.248725     -0.088175
O            -0.290049     -0.091075      0.150981
O             0.204572     -0.086007      0.102085
O             0.305306     -0.244623     -0.142973
O            -0.050368     -0.258053      0.149536
O            -0.451560     -0.079495     -0.098510
O             0.056827     -0.080714     -0.154666
O             0.455761     -0.246033      0.116407
Fe            0.149689      0.073289      0.224322
Fe            0.351922      0.244668     -0.019025
Fe           -0.148034      0.248675     -0.239388
Fe           -0.333736      0.080184      0.031931
H            -0.097427      0.085834      0.057408
H            -0.408846      0.239120     -0.190727
H             0.094207      0.281202     -0.060836
H             0.399472      0.075151      0.200118
O            -0.185961      0.082790     -0.091534
O            -0.284658      0.247026      0.143154
O             0.188819      0.257968      0.088706
O             0.299196      0.087447     -0.154767
O            -0.057089      0.092132      0.153060
O            -0.439592      0.241348     -0.089991
O             0.054632      0.276934     -0.159548
O             0.445538      0.094712      0.108477
Fe            0.143098      0.412990      0.216979
Fe            0.360505     -0.420839     -0.022240
Fe           -0.160558     -0.415045     -0.215013
Fe           -0.356586      0.412714      0.013729
H            -0.098936      0.388683      0.047563
H            -0.438382     -0.414805     -0.200106
H             0.090083     -0.427806     -0.033898
H             0.421489      0.443746      0.209582
O            -0.200080      0.412083     -0.102021
O            -0.296014     -0.422851      0.150333
O             0.222182     -0.419254      0.107354
O             0.308673      0.413758     -0.154891
O            -0.060971      0.416640      0.140038
O            -0.443542     -0.408858     -0.097029
O             0.063385     -0.417800     -0.133430
O             0.437420      0.412719      0.111412
Fe            0.148368     -0.249053     -0.262622
Fe            0.349863     -0.084087      0.480645
Fe           -0.146706     -0.097399      0.288624
Fe           -0.367202     -0.240120     -0.499111
H            -0.076728     -0.253501     -0.427298
H            -0.422656     -0.056857      0.287238
H             0.073735     -0.084813      0.446790
H             0.409416     -0.245239     -0.313609
O            -0.197654     -0.259741      0.412728
O            -0.314108     -0.090468     -0.352884
O             0.186583     -0.084985     -0.411719
O             0.310952     -0.229331      0.335809
O            -0.052834     -0.262944     -0.326234
O            -0.452668     -0.076541      0.382936
O             0.050793     -0.088497      0.344426
O             0.450791     -0.236430     -0.408598
Fe            0.147752      0.081309     -0.279666
Fe            0.349150      0.247225      0.480124
Fe           -0.141181      0.251382      0.278018
Fe           -0.357282      0.082505     -0.481396
H            -0.057841      0.101719     -0.455109
H            -0.435417      0.247440      0.291638
H             0.076631      0.266362      0.451173
H             0.408277      0.065925     -0.294487
O            -0.205563      0.088496      0.394893
O            -0.314619      0.224757     -0.329399
O             0.188647      0.256975     -0.413050
O             0.301848      0.079953      0.348065
O            -0.059722      0.079226     -0.354517
O            -0.455683      0.238333      0.393165
O             0.054979      0.241684      0.352203
O             0.432665      0.077389     -0.394917
Fe            0.152272      0.426737     -0.269773
Yb            0.342216     -0.418105      0.450348
Fe           -0.136798     -0.424882      0.273475
Yb           -0.342681      0.421135     -0.449866
H            -0.067354      0.438350     -0.450700
H            -0.390561     -0.404613      0.286473
H             0.069285     -0.442064      0.453308
H             0.405096      0.397804     -0.298193
O            -0.177005      0.409463      0.395983
O            -0.308084     -0.379228     -0.333213
O             0.198329     -0.400889     -0.385947
O             0.289101      0.387419      0.346652
O            -0.047252      0.428357     -0.348599
O            -0.445679     -0.415535      0.375518
O             0.072094     -0.423221      0.350725
O             0.435342      0.417314     -0.399572
data_nwchem_pspw

_audit_creation_date   Sun Dec 10 18:21:38 2023
_audit_creation_method    generated by PSPW module of NWChem


_cell_length_a            10.0667
_cell_length_b             9.1552
_cell_length_c             9.2041
_cell_angle_alpha         90.0000
_cell_angle_beta          90.0000
_cell_angle_gamma         90.0000

_symmetry_space_group_name_H-M     P1  

loop_
_atom_site_type_symbol
_atom_site_fract_x
_atom_site_fract_y
_atom_site_fract_z
Fe            0.146840     -0.238147      0.212367
Fe            0.362486     -0.094312     -0.039428
Fe           -0.134868     -0.093725     -0.222592
Fe           -0.349252     -0.250985      0.029756
H            -0.080584     -0.236484      0.052309
H            -0.391566     -0.099519     -0.187916
H             0.098557     -0.065893     -0.049144
H             0.421691     -0.228135      0.181873
O            -0.191691     -0.259059     -0.093274
O            -0.311480     -0.067800      0.170213
O             0.205342     -0.073275      0.090307
O             0.293212     -0.253297     -0.149610
O            -0.045163     -0.242190      0.150537
O            -0.437944     -0.105837     -0.094519
O             0.056867     -0.070922     -0.145449
O             0.458976     -0.264794      0.091193
Fe            0.134741      0.084367      0.214273
Fe            0.360186      0.243871     -0.024443
Fe           -0.145410      0.234960     -0.229712
Fe           -0.352440      0.090892      0.040889
H            -0.104690      0.059885      0.047412
H            -0.410236      0.263833     -0.201970
H             0.094567      0.230178     -0.041494
H             0.400696      0.072343      0.193669
O            -0.208728      0.068967     -0.094886
O            -0.301980      0.247042      0.161918
O             0.191710      0.255467      0.103877
O             0.317231      0.077767     -0.161327
O            -0.064583      0.076562      0.142994
O            -0.437242      0.258453     -0.099959
O             0.053827      0.248388     -0.137597
O             0.446308      0.075002      0.101226
Fe            0.134040      0.419349      0.219669
Fe            0.350626     -0.429422     -0.030578
Fe           -0.144289     -0.424079     -0.214192
Fe           -0.362459      0.413621      0.041667
H            -0.087074      0.414935      0.053721
H            -0.417012     -0.438813     -0.182162
H             0.087297     -0.411797     -0.042331
H             0.395508      0.413164      0.205180
O            -0.202537      0.399411     -0.089752
O            -0.293011     -0.424363      0.166970
O             0.185243     -0.418713      0.083689
O             0.306598      0.415714     -0.166569
O            -0.056764      0.394750      0.150850
O            -0.451877     -0.422100     -0.085456
O             0.047333     -0.403633     -0.142427
O             0.444620      0.420586      0.111444
Fe            0.142310     -0.253809     -0.273166
Fe            0.348633     -0.087214      0.481137
Fe           -0.148819     -0.072746      0.287359
Fe           -0.347181     -0.235001     -0.468206
H            -0.084304     -0.255615     -0.460559
H            -0.412595     -0.082750      0.306160
H             0.076673     -0.084642      0.453286
H             0.402952     -0.239575     -0.291251
O            -0.184766     -0.242627      0.418421
O            -0.304223     -0.070396     -0.345863
O             0.192843     -0.089742     -0.404304
O             0.306835     -0.229577      0.317800
O            -0.044478     -0.255683     -0.361403
O            -0.450790     -0.099316      0.402817
O             0.042264     -0.095213      0.353856
O             0.441359     -0.233665     -0.388108
Fe            0.153850      0.083739     -0.280464
Fe            0.341926      0.242044      0.456955
Fe           -0.153039      0.249256      0.281229
Fe           -0.363694      0.089495     -0.479728
H            -0.063988      0.064515     -0.446203
H            -0.412466      0.262466      0.306032
H             0.095828      0.228048      0.450029
H             0.408470      0.102402     -0.316073
O            -0.196393      0.088064      0.416007
O            -0.304468      0.231111     -0.341899
O             0.191251      0.250907     -0.408613
O             0.287171      0.072267      0.350500
O            -0.039582      0.065733     -0.346157
O            -0.449287      0.262549      0.403613
O             0.046087      0.235120      0.358412
O             0.426935      0.089234     -0.419844
Fe            0.134732      0.421984     -0.275583
Yb            0.360527     -0.413086      0.447119
Fe           -0.132617     -0.412436      0.272747
Yb           -0.348353      0.424190     -0.453428
H            -0.082983      0.401000     -0.456560
H            -0.390741     -0.413638      0.299630
H             0.070855     -0.400390      0.454028
H             0.392099      0.410854     -0.304488
O            -0.175827      0.425555      0.410245
O            -0.314628     -0.393724     -0.317106
O             0.183131     -0.418197     -0.412737
O             0.307060      0.397293      0.325512
O            -0.055689      0.411450     -0.351242
O            -0.432920     -0.398966      0.394655
O             0.046694     -0.408780      0.349987
O             0.426766      0.421910     -0.403065
data_nwchem_pspw

_audit_creation_date   Sun Dec 10 22:22:19 2023
_audit_creation_method    generated by PSPW module of NWChem


_cell_length_a            10.0667
_cell_length_b             9.1552
_cell_length_c             9.2041
_cell_angle_alpha         90.0000
_cell_angle_beta          90.0000
_cell_angle_gamma         90.0000

_symmetry_space_group_name_H-M     P1  

loop_
_atom_site_type_symbol
_atom_site_fract_x
_atom_site_fract_y
_atom_site_fract_z
Fe            0.144706     -0.247227      0.209736
Fe            0.354544     -0.073174     -0.031378
Fe           -0.134726     -0.088758     -0.235407
Fe           -0.364470     -0.250416      0.014122
H            -0.094357     -0.243337      0.045445
H            -0.407343     -0.061411     -0.203342
H             0.105965     -0.074120     -0.059792
H             0.432514     -0.213254      0.194675
O            -0.188467     -0.236637     -0.090584
O            -0.302014     -0.090873      0.149718
O             0.198255     -0.071829      0.092472
O             0.295916     -0.241998     -0.154404
O            -0.054262     -0.252099      0.144510
O            -0.442284     -0.080320     -0.106683
O             0.049090     -0.096905     -0.142184
O             0.434185     -0.243280      0.095931
Fe            0.147667      0.089056      0.236606
Fe            0.354167      0.245805     -0.015711
Fe           -0.135484      0.241739     -0.220538
Fe           -0.333510      0.070501      0.024909
H            -0.048812      0.090712      0.047545
H            -0.410461      0.212653     -0.202867
H             0.104678      0.248906     -0.063271
H             0.426540      0.064627      0.196798
O            -0.193988      0.078511     -0.115493
O            -0.295847      0.238007      0.151381
O             0.194936      0.254101      0.085427
O             0.293283      0.087754     -0.151612
O            -0.047068      0.088407      0.153247
O            -0.449696      0.239175     -0.110384
O             0.061961      0.242011     -0.159238
O             0.455338      0.075071      0.095578
Fe            0.137494      0.414267      0.206551
Fe            0.355599     -0.422442     -0.029585
Fe           -0.150832     -0.418303     -0.198644
Fe           -0.358732      0.397877      0.029174
H            -0.090901      0.427345      0.043429
H            -0.412644     -0.398908     -0.195672
H             0.086610     -0.414282     -0.037311
H             0.406061      0.415487      0.197552
O            -0.202518      0.403492     -0.101846
O            -0.305071     -0.422522      0.152367
O             0.203735     -0.412982      0.097767
O             0.289878      0.425834     -0.146913
O            -0.063877      0.416528      0.144737
O            -0.445236     -0.413148     -0.097053
O             0.049158     -0.433217     -0.129945
O             0.440824      0.422688      0.099106
Fe            0.141085     -0.232795     -0.264847
Fe            0.367292     -0.070101      0.465546
Fe           -0.142045     -0.082324      0.284008
Fe           -0.353571     -0.256456     -0.480386
H            -0.088592     -0.247670     -0.462861
H            -0.392971     -0.075880      0.286509
H             0.097590     -0.095228      0.443215
H             0.438645     -0.219261     -0.290948
O            -0.187208     -0.252394      0.407135
O            -0.291124     -0.086040     -0.353704
O             0.200761     -0.074945     -0.404741
O             0.297027     -0.215812      0.336593
O            -0.060841     -0.250919     -0.360830
O            -0.432439     -0.086583      0.384234
O             0.058011     -0.074602      0.348410
O             0.447181     -0.242846     -0.391754
Fe            0.148523      0.095600     -0.296085
Fe            0.352316      0.257147      0.475582
Fe           -0.159627      0.256085      0.289460
Fe           -0.358908      0.071335     -0.485699
H            -0.089953      0.077391     -0.443483
H            -0.408877      0.249575      0.294329
H             0.073233      0.266586      0.453084
H             0.406774      0.088119     -0.294389
O            -0.188263      0.085208      0.399390
O            -0.286437      0.206751     -0.355780
O             0.191357      0.272951     -0.398419
O             0.309732      0.083856      0.341445
O            -0.040143      0.092799     -0.353314
O            -0.441066      0.242545      0.394849
O             0.043293      0.263913      0.352775
O             0.442539      0.075245     -0.391012
Fe            0.140924      0.418717     -0.263905
Yb            0.331737     -0.406982      0.459825
Fe           -0.149257     -0.418400      0.265092
Yb           -0.336118      0.401190     -0.446329
H            -0.108397      0.430365     -0.431833
H            -0.432113     -0.409668      0.294405
H             0.069710     -0.395514      0.445506
H             0.426112      0.405514     -0.292406
O            -0.182768      0.429182      0.406183
O            -0.291230     -0.393746     -0.335035
O             0.172214     -0.408588     -0.394063
O             0.292765      0.397296      0.338164
O            -0.066662      0.422986     -0.337118
O            -0.446292     -0.407270      0.396566
O             0.059827     -0.404258      0.342102
O             0.449011      0.404310     -0.395442
data_nwchem_pspw

_audit_creation_date   Mon Dec 11 02:22:09 2023
_audit_creation_method    generated by PSPW module of NWChem


_cell_length_a            10.0667
_cell_length_b             9.1552
_cell_length_c             9.2041
_cell_angle_alpha         90.0000
_cell_angle_beta          90.0000
_cell_angle_gamma         90.0000

_symmetry_space_group_name_H-M     P1  

loop_
_atom_site_type_symbol
_atom_site_fract_x
_atom_site_fract_y
_atom_site_fract_z
Fe            0.139648     -0.252123      0.211294
Fe            0.337605     -0.079004     -0.026530
Fe           -0.129501     -0.074952     -0.224959
Fe           -0.356018     -0.233784      0.026641
H            -0.086424     -0.240875      0.051947
H            -0.440389     -0.068857     -0.201907
H             0.093256     -0.051939     -0.050988
H             0.411559     -0.244058      0.189131
O            -0.189171     -0.230966     -0.091831
O            -0.311762     -0.063678      0.149402
O             0.179216     -0.071966      0.089022
O             0.294377     -0.247906     -0.150436
O            -0.061290     -0.235330      0.154681
O            -0.461964     -0.085084     -0.101332
O             0.065827     -0.069047     -0.151936
O             0.438122     -0.252482      0.087269
Fe            0.129833      0.066042      0.249136
Fe            0.335324      0.243291     -0.022747
Fe           -0.137452      0.233938     -0.223831
Fe           -0.369390      0.092707      0.023774
H            -0.094234      0.095601      0.059320
H            -0.408681      0.229703     -0.209708
H             0.090975      0.222769     -0.062403
H             0.392598      0.089005      0.201467
O            -0.192625      0.091517     -0.080844
O            -0.299425      0.251528      0.161093
O             0.181563      0.233339      0.098911
O             0.309842      0.088941     -0.161935
O            -0.062092      0.086023      0.161307
O            -0.455021      0.242932     -0.116797
O             0.060539      0.240808     -0.162820
O             0.436298      0.082899      0.107727
Fe            0.150705      0.394453      0.215608
Fe            0.346587     -0.418271     -0.043806
Fe           -0.141348     -0.402907     -0.192660
Fe           -0.357073      0.427233      0.026432
H            -0.086444      0.412086      0.048815
H            -0.407649     -0.407965     -0.201995
H             0.085170     -0.420801     -0.047320
H             0.424263      0.397857      0.192764
O            -0.191321      0.413546     -0.075811
O            -0.290756     -0.398404      0.149975
O             0.177873     -0.432793      0.097595
O             0.294458      0.421620     -0.157248
O            -0.052242      0.413380      0.150244
O            -0.435759     -0.411573     -0.101321
O             0.052075     -0.402376     -0.147012
O             0.436800      0.405745      0.089247
Fe            0.142198     -0.251370     -0.275739
Fe            0.362630     -0.097677      0.474764
Fe           -0.159099     -0.079939      0.277969
Fe           -0.341566     -0.247474     -0.462931
H            -0.089220     -0.239262     -0.444211
H            -0.415702     -0.080246      0.294336
H             0.055941     -0.105600      0.463596
H             0.441285     -0.230329     -0.303929
O            -0.194899     -0.246839      0.405154
O            -0.286701     -0.072947     -0.330576
O             0.210524     -0.090202     -0.401557
O             0.302990     -0.228844      0.318852
O            -0.040898     -0.241358     -0.352291
O            -0.442003     -0.091840      0.395064
O             0.043693     -0.086467      0.361747
O             0.458276     -0.246962     -0.405117
Fe            0.168799      0.080154     -0.287144
Fe            0.365789      0.238722      0.474129
Fe           -0.146146      0.258014      0.286834
Fe           -0.350040      0.079797     -0.469482
H            -0.084823      0.096279     -0.459891
H            -0.408933      0.250054      0.288134
H             0.084669      0.229329      0.460714
H             0.422895      0.122623     -0.297649
O            -0.205166      0.084463      0.402317
O            -0.304876      0.234582     -0.343190
O             0.204769      0.244994     -0.412158
O             0.286818      0.077432      0.353203
O            -0.048655      0.091397     -0.362566
O            -0.451145      0.243221      0.384825
O             0.049524      0.248068      0.364567
O             0.457205      0.092004     -0.390531
Fe            0.137721      0.420983     -0.282389
Yb            0.356472     -0.428239      0.456618
Fe           -0.136210     -0.410209      0.286507
Yb           -0.353457      0.419432     -0.469795
H            -0.088456      0.428612     -0.443652
H            -0.402234     -0.386355      0.280460
H             0.083961     -0.399867      0.461835
H             0.397479      0.397016     -0.305169
O            -0.185910      0.439654      0.402239
O            -0.298349     -0.401223     -0.323090
O             0.190366     -0.411883     -0.397507
O             0.310017      0.388888      0.334657
O            -0.063967      0.422612     -0.340983
O            -0.431398     -0.388630      0.380895
O             0.064506     -0.416139      0.360137
O             0.447068      0.412548     -0.396331
data_nwchem_pspw

_audit_creation_date   Mon Dec 11 06:22:41 2023
_audit_creation_method    generated by PSPW module of NWChem


_cell_length_a            10.0667
_cell_length_b             9.1552
_cell_length_c             9.2041
_cell_angle_alpha         90.0000
_cell_angle_beta          90.0000
_cell_angle_gamma         90.0000

_symmetry_space_group_name_H-M     P1  

loop_
_atom_site_type_symbol
_atom_site_fract_x
_atom_site_fract_y
_atom_site_fract_z
Fe            0.147694     -0.245816      0.206261
Fe            0.344042     -0.069811     -0.022526
Fe           -0.154552     -0.085512     -0.220649
Fe           -0.361404     -0.246596      0.025481
H            -0.079684     -0.261957      0.041104
H            -0.399114     -0.092815     -0.194970
H             0.077060     -0.066504     -0.049836
H             0.407797     -0.237111      0.193131
O            -0.190385     -0.234915     -0.086779
O            -0.311047     -0.085679      0.159902
O             0.187911     -0.075598      0.092665
O             0.296787     -0.237527     -0.147387
O            -0.054108     -0.252779      0.143993
O            -0.444878     -0.079489     -0.105448
O             0.047485     -0.070230     -0.150774
O             0.434899     -0.234032      0.088895
Fe            0.143472      0.076111      0.246108
Fe            0.356555      0.251845     -0.032955
Fe           -0.142666      0.256069     -0.227178
Fe           -0.346796      0.078927      0.025475
H            -0.074323      0.070040      0.038424
H            -0.435466      0.236989     -0.195014
H             0.099694      0.222220     -0.051685
H             0.377785      0.084048      0.191651
O            -0.192054      0.087562     -0.107629
O            -0.307611      0.248018      0.161627
O             0.191642      0.232823      0.097255
O             0.298136      0.093284     -0.154832
O            -0.054792      0.079955      0.140914
O            -0.444180      0.251345     -0.090400
O             0.063016      0.246804     -0.148480
O             0.436996      0.081765      0.110272
Fe            0.156466      0.409507      0.204147
Fe            0.362943     -0.408044     -0.030383
Fe           -0.140172     -0.414750     -0.213894
Fe           -0.351455      0.416445      0.041587
H            -0.075514      0.439585      0.025369
H            -0.423762     -0.396249     -0.198384
H             0.092604     -0.432728     -0.035082
H             0.419244      0.402176      0.204445
O            -0.205570      0.422673     -0.104646
O            -0.300519     -0.414336      0.148424
O             0.215133     -0.407505      0.091809
O             0.305385      0.419936     -0.159060
O            -0.037272      0.435040      0.121940
O            -0.446195     -0.402517     -0.094282
O             0.056759     -0.416893     -0.130959
O             0.454810      0.413209      0.105847
Fe            0.146191     -0.243444     -0.269994
Fe            0.356698     -0.081838      0.486274
Fe           -0.147030     -0.080422      0.267279
Fe           -0.354492     -0.260398     -0.475412
H            -0.076837     -0.258778     -0.434505
H            -0.417798     -0.057101      0.291601
H             0.084349     -0.090530      0.450983
H             0.416236     -0.223221     -0.294240
O            -0.174104     -0.271899      0.411171
O            -0.300193     -0.098784     -0.356866
O             0.198593     -0.077649     -0.395997
O             0.302504     -0.229505      0.342982
O            -0.048711     -0.254171     -0.332546
O            -0.432813     -0.076449      0.394252
O             0.045589     -0.099192      0.353998
O             0.444986     -0.245853     -0.390943
Fe            0.140900      0.092074     -0.282437
Fe            0.351369      0.250386      0.493482
Fe           -0.155077      0.241804      0.269857
Fe           -0.349845      0.074629     -0.475131
H            -0.098732      0.084238     -0.443897
H            -0.433200      0.243484      0.290592
H             0.093247      0.260715      0.436820
H             0.415751      0.080237     -0.282712
O            -0.190007      0.081675      0.410218
O            -0.310564      0.221948     -0.335736
O             0.187622      0.259121     -0.405605
O             0.294968      0.081787      0.375102
O            -0.055686      0.085065     -0.348416
O            -0.439800      0.232198      0.393968
O             0.051837      0.252074      0.338475
O             0.441521      0.077967     -0.383995
Fe            0.145368      0.420094     -0.261764
Yb            0.333159     -0.417620      0.464530
Fe           -0.132329     -0.414033      0.266085
Yb           -0.342252      0.411541     -0.475069
H            -0.073310      0.400009     -0.449415
H            -0.423991     -0.411652      0.290115
H             0.086885     -0.439913      0.448672
H             0.396563      0.430166     -0.295952
O            -0.161100      0.411045      0.392785
O            -0.307455     -0.405109     -0.334989
O             0.174061     -0.422293     -0.395080
O             0.319204      0.383859      0.337243
O            -0.055115      0.425120     -0.347948
O            -0.453479     -0.405861      0.391355
O             0.078087     -0.435602      0.343356
O             0.438635      0.417295     -0.391133
data_nwchem_pspw

_audit_creation_date   Mon Dec 11 10:17:39 2023
_audit_creation_method    generated by PSPW module of NWChem


_cell_length_a            10.0667
_cell_length_b             9.1552
_cell_length_c             9.2041
_cell_angle_alpha         90.0000
_cell_angle_beta          90.0000
_cell_angle_gamma         90.0000

_symmetry_space_group_name_H-M     P1  

loop_
_atom_site_type_symbol
_atom_site_fract_x
_atom_site_fract_y
_atom_site_fract_z
Fe            0.160453     -0.242396      0.223856
Fe            0.356222     -0.085647     -0.034001
Fe           -0.158950     -0.088186     -0.234377
Fe           -0.347816     -0.252571      0.035998
H            -0.077627     -0.249591      0.037119
H            -0.422899     -0.062051     -0.209726
H             0.069117     -0.088928     -0.053656
H             0.417986     -0.243829      0.187744
O            -0.199550     -0.244596     -0.101723
O            -0.309930     -0.080363      0.150081
O             0.187292     -0.091841      0.076497
O             0.307195     -0.262361     -0.160293
O            -0.060343     -0.238001      0.140193
O            -0.454256     -0.078207     -0.112960
O             0.035181     -0.090463     -0.153209
O             0.458413     -0.245096      0.090959
Fe            0.152070      0.080945      0.216403
Fe            0.353165      0.253926     -0.017940
Fe           -0.144964      0.224646     -0.242090
Fe           -0.362018      0.084259      0.026812
H            -0.089996      0.089802      0.048344
H            -0.395561      0.219241     -0.190406
H             0.086885      0.246883     -0.041145
H             0.397928      0.077683      0.209667
O            -0.213872      0.072643     -0.102006
O            -0.286915      0.248040      0.145649
O             0.193374      0.248448      0.102104
O             0.296348      0.086856     -0.137701
O            -0.053382      0.089135      0.145257
O            -0.442857      0.250744     -0.104276
O             0.049524      0.249248     -0.140369
O             0.444350      0.074126      0.112419
Fe            0.153086      0.429619      0.225313
Fe            0.362087     -0.426856     -0.027954
Fe           -0.142928     -0.417531     -0.216627
Fe           -0.344735      0.405060      0.019045
H            -0.061880      0.407841      0.033294
H            -0.419010     -0.415926     -0.205726
H             0.068388     -0.415731     -0.042245
H             0.416483      0.420098      0.197370
O            -0.201623      0.405459     -0.110344
O            -0.283755     -0.424341      0.143459
O             0.218900     -0.415890      0.100223
O             0.291657      0.411794     -0.148135
O            -0.036280      0.422764      0.133961
O            -0.441350     -0.423134     -0.104200
O             0.055403     -0.426932     -0.145411
O             0.462178      0.425366      0.101612
Fe            0.145348     -0.255241     -0.264518
Fe            0.358667     -0.080017     -0.498342
Fe           -0.145627     -0.071719      0.275705
Fe           -0.337034     -0.249835     -0.480100
H            -0.069602     -0.246930     -0.455399
H            -0.432492     -0.088093      0.303703
H             0.093919     -0.076313      0.436103
H             0.441945     -0.262901     -0.288172
O            -0.181435     -0.241010      0.393952
O            -0.303584     -0.071049     -0.360504
O             0.202884     -0.100415     -0.385228
O             0.325738     -0.213794      0.334672
O            -0.055517     -0.262003     -0.353205
O            -0.450687     -0.072871      0.407525
O             0.054201     -0.063375      0.340407
O             0.468095     -0.248986     -0.388780
Fe            0.136718      0.084535     -0.261655
Fe            0.338511      0.251267      0.464083
Fe           -0.141075      0.258055      0.269569
Fe           -0.361978      0.083440     -0.481482
H            -0.091563      0.079617     -0.458930
H            -0.441714      0.225462      0.286391
H             0.068597      0.264957      0.448042
H             0.386117      0.100801     -0.301034
O            -0.194459      0.094444      0.401748
O            -0.316607      0.213065     -0.340657
O             0.193050      0.237363     -0.390120
O             0.301007      0.085462      0.342007
O            -0.049223      0.052170     -0.367329
O            -0.461031      0.237395      0.390233
O             0.052557      0.259131      0.344637
O             0.431620      0.094156     -0.394221
Fe            0.139719      0.410883     -0.268779
Yb            0.349644     -0.397502      0.477645
Fe           -0.129775     -0.414201      0.262660
Yb           -0.362834      0.406112     -0.460853
H            -0.100659      0.404735     -0.460664
H            -0.394225     -0.411999      0.296183
H             0.099869     -0.419532      0.446298
H             0.406288      0.389213     -0.292096
O            -0.194641      0.421453      0.393063
O            -0.297115     -0.405607     -0.347650
O             0.175796     -0.429407     -0.403743
O             0.308452      0.411706      0.333574
O            -0.067281      0.406730     -0.357163
O            -0.441624     -0.413271      0.385962
O             0.067962     -0.396640      0.343844
O             0.428134      0.416685     -0.389342